98
Energy =
C     1.4739875   -0.6385825   -2.6838526 
C     2.0433044   -1.4131395   -1.6452777 
C     1.3140595   -2.4429303   -1.0079354 
H     3.0575413   -1.1788405   -1.2997549 
Pd    0.3465682   -0.3485186   -0.6724470 
P    -0.6526163   -1.1175311    1.3492159 
P    -0.5094019    1.8936835   -0.7773695 
H     0.5951018   -1.0685947   -3.1868527 
H     0.4224010   -2.8180912   -1.5304365 
C     3.6741362    2.1263024   -5.1367832 
C     4.0993146    1.8759020   -3.8204578 
C     3.3946184    0.9816591   -3.0093449 
C     2.2393774    0.3232473   -3.4935759 
C     1.8321069    0.5754920   -4.8244326 
C     2.5426964    1.4659607   -5.6378838 
H     4.2274159    2.8285033   -5.7685409 
H     4.9854285    2.3837398   -3.4258093 
H     3.7318664    0.8107030   -1.9823261 
H     0.9489837    0.0636852   -5.2222865 
H     2.2120127    1.6453189   -6.6660113 
C     2.9298757   -5.2777478    1.7940725 
C     1.7325639   -5.5399940    1.1132891 
C     1.2135502   -4.5984672    0.2175962 
C     1.8796572   -3.3738685   -0.0186409 
C     3.0976561   -3.1343864    0.6617989 
C     3.6128973   -4.0721794    1.5594178 
H     3.3365987   -6.0111094    2.4979504 
H     1.1977791   -6.4806742    1.2793925 
H     0.2802671   -4.8106502   -0.3145219 
H     3.6514549   -2.2061740    0.4906210 
H     4.5531248   -3.8646024    2.0803264 
Fe   -3.2022231    1.1452335    1.4454217 
C    -2.2031630    1.9973799   -0.0950676 
C    -2.8517525    3.0123373    0.7098764 
H    -2.3627207    3.8368022    1.2284023 
C    -4.2596402    2.7479483    0.7297654 
H    -5.0066605    3.3212608    1.2817987 
C    -4.5081199    1.5752241   -0.0559853 
H    -5.4773765    1.0969549   -0.2076215 
C    -3.2501176    1.1043201   -0.5592111 
C    -2.0962160   -0.3601802    2.1848120 
C    -3.4751642   -0.7725318    2.0302567 
H    -3.8300429   -1.5909338    1.4026446 
C    -4.2889183    0.0964207    2.8270248 
H    -5.3777053    0.0611883    2.8949963 
C    -3.4324776    1.0403896    3.4828133 
H    -3.7527336    1.8445949    4.1475586 
C    -2.0812960    0.7628790    3.0984925 
C    -1.3501112   -2.7994706    1.0537932 
C    -2.0300537   -3.0002799   -0.1660720 
H    -2.0663270   -2.1903395   -0.9058940 
C    -2.6521798   -4.2266338   -0.4386458 
H    -3.1770642   -4.3731421   -1.3883508 
C    -2.5966611   -5.2645715    0.5056329 
H    -3.0785415   -6.2245211    0.2937800 
C    -1.9164001   -5.0706851    1.7169291 
H    -1.8582214   -5.8820287    2.4498156 
C    -1.2931442   -3.8446668    1.9930392 
H    -0.7413912   -3.7190961    2.9284321 
C     0.5524637   -1.2048820    2.7324253 
C     1.8911088   -0.8430578    2.4916426 
H     2.1850707   -0.5356420    1.4814390 
C     2.8296857   -0.8543669    3.5317549 
H     3.8679763   -0.5694942    3.3325193 
C     2.4358192   -1.2280887    4.8242600 
H     3.1672218   -1.2382924    5.6390079 
C     1.0981112   -1.5721373    5.0788171 
H     0.7849940   -1.8459088    6.0916229 
C     0.1554611   -1.5514529    4.0428781 
H    -0.8931177   -1.7831767    4.2577125 
H    -3.0977738    0.2113074   -1.1686206 
H    -1.1950064    1.2822054    3.4593349 
C     0.6394471    3.0034920    0.2822328 
C    -0.8303946    2.7110744   -2.5036232 
C     0.4627458    2.5772348    1.7527833 
H     1.2131930    3.1018179    2.3720719 
H    -0.5369905    2.8304615    2.1346756 
H     0.6230878    1.4940845    1.8825553 
C     2.0944412    2.6912088   -0.1379991 
H     2.7854955    3.2616095    0.5092407 
H     2.3134953    1.6150833   -0.0104857 
H     2.3067399    2.9624259   -1.1827072 
C     0.3705666    4.5187807    0.1671958 
H     1.0459003    5.0456874    0.8663030 
H     0.5724844    4.9099946   -0.8408938 
H    -0.6618755    4.7858147    0.4415148 
C    -1.3905742    1.5961106   -3.4137642 
H    -1.5435788    2.0038690   -4.4296132 
H    -0.6969458    0.7453969   -3.4875315 
H    -2.3652388    1.2264103   -3.0555093 
C    -1.8766927    3.8449335   -2.4161464 
H    -1.9825264    4.2912976   -3.4223194 
H    -2.8667633    3.4735190   -2.1075772 
H    -1.5764015    4.6488235   -1.7265987 
C     0.4752174    3.2626261   -3.1109024 
H     0.2893321    3.5247743   -4.1678192 
H     0.8161493    4.1775796   -2.6022604 
H     1.2897677    2.5269083   -3.0951923 
