86
Energy =
C     0.2008966    3.0759601    0.0836982 
C     0.8206585    2.6242996    1.2733749 
C     2.0417102    1.9013367    1.2121145 
H     0.3050347    2.7433634    2.2343493 
Pd    0.3870913    0.7903495    0.1267901 
P     1.4171682   -1.3421008    0.2260091 
P    -1.6003369    0.2793103   -1.0354014 
H     0.8457321    3.1728831   -0.8031401 
H     2.6727427    2.0847334    0.3309369 
C    -3.4331375    5.3571899   -0.2077310 
C    -2.4638035    5.4182905   -1.2200982 
C    -1.2826172    4.6747670   -1.1057678 
C    -1.0441353    3.8587259    0.0245663 
C    -2.0225607    3.8224804    1.0454077 
C    -3.2048646    4.5599111    0.9275514 
H    -4.3604182    5.9319664   -0.2975913 
H    -2.6289198    6.0447721   -2.1025234 
H    -0.5335073    4.7168609   -1.9042995 
H    -1.8648636    3.2002240    1.9322967 
H    -3.9546664    4.5144166    1.7241698 
C     4.1748163    0.2875520    4.5804218 
C     2.7887516    0.5026074    4.6729008 
C     2.0837655    1.0368686    3.5899577 
C     2.7518990    1.3724655    2.3887516 
C     4.1479963    1.1613178    2.3140139 
C     4.8525347    0.6227581    3.3984481 
H     4.7227329   -0.1367996    5.4277519 
H     2.2547249    0.2409303    5.5921508 
H     0.9981150    1.1618100    3.6640631 
H     4.6831261    1.4246148    1.3947188 
H     5.9335312    0.4670960    3.3217154 
Fe   -0.8111209   -2.9014805   -1.7755946 
C    -1.4881614   -1.0769318   -2.2405550 
C    -2.4754646   -2.0826990   -2.5839469 
H    -3.4878524   -2.1620606   -2.1850313 
C    -1.8807928   -2.9868813   -3.5244472 
H    -2.3621363   -3.8693717   -3.9496157 
C    -0.5382464   -2.5542805   -3.7793154 
H     0.1814353   -3.0496133   -4.4333202 
C    -0.2922483   -1.3779164   -2.9992885 
C     0.4387470   -2.8158976   -0.2148187 
C     0.7936499   -3.9225617   -1.0838148 
H     1.7416358   -4.0640799   -1.6044321 
C    -0.3337802   -4.8033613   -1.1701456 
H    -0.3864474   -5.7105207   -1.7746569 
C    -1.3850336   -4.2695107   -0.3565217 
H    -2.3804718   -4.6986469   -0.2302622 
C    -0.9143298   -3.0550093    0.2395532 
H     0.6394223   -0.8100853   -2.9610374 
H    -1.4772296   -2.4121328    0.9161353 
C     2.2885519   -1.9384010    1.7795778 
C     3.3790166   -2.8693225    1.2115966 
C     4.0413584   -2.1221117    0.0423626 
C     2.9483539   -1.5012575   -0.8750669 
H     2.7809191   -1.0426019    2.1920770 
H     4.1139639   -3.1259549    1.9958562 
H     2.9248589   -3.8185253    0.8688902 
H     4.6605843   -1.3024431    0.4520128 
H     4.7130792   -2.7740355   -0.5429102 
H     2.6528099   -2.2206327   -1.6574249 
C    -2.5453669    1.5871502   -1.9910687 
C    -4.0011934    1.0870622   -1.9141877 
C    -4.2522128    0.6911404   -0.4500316 
C    -3.0684533   -0.1753718    0.0673806 
H    -2.4690092    2.4970303   -1.3722887 
H    -4.6993725    1.8765631   -2.2463054 
H    -4.1441136    0.2240505   -2.5915842 
H    -4.3080025    1.6117066    0.1603533 
H    -5.2084645    0.1553911   -0.3186662 
H    -3.2594165   -1.2424810   -0.1421000 
C    -2.7982571    0.0025009    1.5683076 
H    -2.5619063    1.0543151    1.8017186 
H    -3.6931463   -0.2802984    2.1507187 
C    -1.9987647    1.8782799   -3.3892936 
H    -0.9484907    2.2178113   -3.3478070 
H    -2.0474972    0.9856948   -4.0371560 
C     1.3720773   -2.5446277    2.8439061 
H     0.6054944   -1.8209323    3.1727904 
H     1.9678585   -2.8238665    3.7304849 
C     3.3964190   -0.2052880   -1.5630459 
H     2.5918590    0.2429507   -2.1722144 
H     4.2533706   -0.4110994   -2.2287072 
H    -2.5914058    2.6801306   -3.8638045 
H    -1.9521725   -0.6146059    1.9175023 
H     3.7236177    0.5452407   -0.8244909 
H     0.8622817   -3.4510810    2.4741279 
