132
Energy =
C     1.3094060   -0.9684769   -3.1271427 
C     1.4968563    0.4194184   -2.8999173 
C     2.3307488    0.9030170   -1.8600440 
H     0.9002700    1.1401896   -3.4740044 
Pd    0.6368003   -0.3343347   -1.0108148 
P     0.4431184    0.8300879    0.9866539 
P    -0.9945697   -1.9394421   -0.4259452 
H     2.1046256   -1.6399054   -2.7688894 
H     3.1241649    0.2293257   -1.5009521 
C    -1.0001548   -2.5858853   -6.3914779 
C     0.0382872   -3.3279966   -5.8094285 
C     0.7767022   -2.7910632   -4.7485501 
C     0.4878022   -1.5066285   -4.2296701 
C    -0.5564741   -0.7691802   -4.8348272 
C    -1.2849130   -1.2995603   -5.9051334 
H    -1.5758104   -3.0000437   -7.2253920 
H     0.2838631   -4.3241879   -6.1918595 
H     1.6043210   -3.3688667   -4.3221724 
H    -0.8075947    0.2298615   -4.4642077 
H    -2.0823408   -0.7057561   -6.3638789 
C     3.1150725    5.0601186   -1.0573427 
C     1.8722151    4.6791728   -1.5896264 
C     1.6009610    3.3330247   -1.8535148 
C     2.5665605    2.3351575   -1.5895122 
C     3.8118567    2.7347140   -1.0572045 
C     4.0846011    4.0821081   -0.7928653 
H     3.3236519    6.1136410   -0.8445724 
H     1.1076850    5.4358107   -1.7954791 
H     0.6219548    3.0544807   -2.2545851 
H     4.5737925    1.9767382   -0.8493461 
H     5.0520659    4.3648459   -0.3655700 
Fe    0.8488363   -1.8276870    3.2713819 
C    -0.0158810   -0.1929134    2.4115197 
C    -0.9327094   -1.3202297    2.3753891 
C    -1.1314121   -1.7390046    3.7408728 
C    -0.3644006   -0.8915003    4.6054422 
C     0.3337814    0.0587998    3.7916895 
C     2.8880780   -1.8543915    3.3838570 
C     2.3093312   -2.4978511    4.5270924 
C     1.5075412   -3.5936784    4.0653601 
C     1.5976035   -3.6321444    2.6366655 
C     2.4421455   -2.5529776    2.2090320 
C    -0.9231708    2.0488006    0.8770366 
C    -1.5090766    2.5993988    2.0343458 
C    -2.6117528    3.4636298    1.9430252 
C    -3.1229026    3.7658504    0.6566040 
C    -2.5677544    3.2111926   -0.5196601 
C    -1.4629565    2.3562197   -0.3834407 
C     1.9152079    1.7454932    1.5688589 
C     1.8822192    3.1097948    1.8964381 
C     3.0438218    3.7779042    2.3259491 
C     4.2402890    3.0353395    2.4347157 
C     4.3058101    1.6653068    2.0858758 
C     3.1328178    1.0425572    1.6398381 
C    -1.8568108   -1.7237655    1.2424744 
H    -1.7655548   -2.5708087    4.0559623 
H    -0.2872420   -0.9844463    5.6905037 
H     1.0316629    0.8254178    4.1340055 
H     3.5346504   -0.9773964    3.4142557 
H     2.4327417   -2.1860935    5.5658801 
H     0.9195130   -4.2690468    4.6892322 
H     1.1153226   -4.3675780    1.9973884 
H     2.7002575   -2.3142240    1.1747635 
H    -1.1235015    2.3319372    3.0243197 
H    -1.0350666    1.8834649   -1.2747167 
H     0.9536687    3.6787994    1.7861677 
H     3.1694672   -0.0009758    1.3113308 
H    -2.2539810   -2.7257011    1.4755361 
H     0.6908225   -3.5093100    0.1642567 
H    -1.7351047   -2.3210293   -2.6366421 
C    -3.8448316   -0.5652448   -3.2473700 
C    -2.8127466   -0.5495809   -2.1065282 
C    -2.3172119   -1.9754612   -1.7586977 
C    -3.4745780   -2.9747797   -1.5328544 
C    -4.4823180   -2.9410931   -2.6975881 
C    -5.0095759   -1.5201093   -2.9451744 
H    -3.3499969   -0.8909861   -4.1804538 
H    -4.2142352    0.4622403   -3.4195118 
H    -3.2621235   -0.0636242   -1.2255944 
H    -1.9386423    0.0665205   -2.3861054 
H    -3.0737373   -3.9965183   -1.4235513 
H    -4.0034845   -2.7404113   -0.5905555 
H    -3.9850989   -3.3104713   -3.6161205 
H    -5.3130682   -3.6370013   -2.4830442 
H    -5.5591469   -1.1679805   -2.0493492 
H    -5.7321020   -1.5187632   -3.7805714 
C     0.7577752   -5.5585083   -1.7202419 
C     0.0299353   -4.2052418   -1.7549473 
C    -0.2780251   -3.6856157   -0.3370322 
C    -1.0600730   -4.7310865    0.4930208 
C    -0.3612100   -6.1079611    0.4737212 
C    -0.0689388   -6.5995340   -0.9516116 
H     1.7449962   -5.4349763   -1.2322073 
H     0.9528013   -5.8979058   -2.7536140 
H    -0.9078331   -4.3259275   -2.3285522 
H     0.6301679   -3.4560832   -2.2912257 
H    -1.1600033   -4.3927242    1.5394453 
H    -2.0834381   -4.8438245    0.0925235 
H     0.5958614   -6.0440247    1.0284524 
H    -0.9865013   -6.8369891    1.0194916 
H    -1.0237185   -6.7740536   -1.4859775 
H     0.4580887   -7.5695053   -0.9189786 
C    -3.0563210   -0.7433087    1.2455920 
H    -2.7593985    0.2735109    0.9477002 
H    -3.8691192   -1.0858151    0.5872481 
H    -3.4527889   -0.6862612    2.2736859 
C    -3.2718973    4.0412536    3.1726354 
H    -2.9927363    5.1019018    3.3157141 
H    -4.3696636    4.0085508    3.0740253 
H    -2.9720495    3.4915504    4.0792941 
C    -3.1737802    3.5079871   -1.8710845 
H    -4.2713225    3.5801530   -1.7962474 
H    -2.8093841    4.4718322   -2.2736791 
H    -2.9122246    2.7242238   -2.6011502 
O    -4.2515082    4.5486536    0.5607958 
C    -4.0292278    5.9544332    0.3792211 
H    -5.0241177    6.4213814    0.3322105 
H    -3.4604990    6.3836475    1.2257310 
H    -3.4823943    6.1580129   -0.5609866 
C     3.0282235    5.2616254    2.6061845 
H     2.8364627    5.4715856    3.6753495 
H     4.0005165    5.7125160    2.3480508 
H     2.2373266    5.7597388    2.0220932 
C     5.6282194    0.9378378    2.1358119 
H     5.9910243    0.8309118    3.1743510 
H     5.5445109   -0.0713717    1.7002287 
H     6.4035380    1.5019832    1.5890320 
O     5.4196017    3.6722918    2.7575163 
C     5.6734864    3.8697802    4.1553196 
H     6.6539273    4.3639642    4.2250632 
H     4.9044625    4.5136573    4.6218659 
H     5.7083086    2.9034606    4.6938970 
