124
Energy =
C     1.6919515    2.7386489   -1.1354541 
C     0.9945963    3.3117193   -0.0288038 
C     1.2890376    2.9543322    1.3007695 
H     0.1385136    3.9693830   -0.2250250 
Pd    0.6144181    1.1231717    0.0011572 
P    -0.8143895   -0.0601465    1.4421572 
P     0.9467834   -0.6950044   -1.4501353 
H     2.7331069    2.4315092   -0.9625443 
H     2.2394013    2.4268450    1.4762574 
C     0.7664322    3.6469302   -5.2500141 
C    -0.2158196    3.8123115   -4.2588894 
C     0.0744338    3.5258458   -2.9214552 
C     1.3588862    3.0730251   -2.5353233 
C     2.3427114    2.9384719   -3.5421500 
C     2.0492620    3.2137220   -4.8841298 
H     0.5347756    3.8646022   -6.2975160 
H    -1.2182874    4.1569253   -4.5336215 
H    -0.7172990    3.6288610   -2.1706805 
H     3.3563845    2.6306911   -3.2633534 
H     2.8294782    3.1005897   -5.6442283 
C    -0.3809208    4.6045444    4.9068352 
C     0.7022386    3.7140090    4.9538329 
C     1.2338399    3.1961266    3.7673560 
C     0.6916906    3.5438422    2.5079683 
C    -0.3777422    4.4706675    2.4777834 
C    -0.9095681    4.9881276    3.6622819 
H    -0.8001400    5.0130178    5.8319092 
H     1.1382265    3.4278203    5.9166161 
H     2.0865007    2.5097380    3.8068704 
H    -0.7996806    4.7949181    1.5216994 
H    -1.7385541    5.7019886    3.6165102 
Fe   -0.8389002   -3.7560045    1.6755021 
C    -1.1022049   -1.8179884    1.0299465 
C    -0.2955144   -2.5996249    0.1005222 
C    -1.0924323   -3.7194292   -0.3328514 
C    -2.3613405   -3.6639510    0.3319610 
C    -2.3665248   -2.5141789    1.1842356 
C     0.8511498   -4.4921450    2.5720552 
C    -0.0225075   -3.9296920    3.5607348 
C    -1.2844145   -4.6035003    3.4893808 
C    -1.1892592   -5.6000608    2.4606119 
C     0.1304331   -5.5331019    1.8956396 
C     1.0933941   -2.2497291   -0.3752537 
H    -0.7707129   -4.5137574   -1.0076774 
H    -3.1642581   -4.3975368    0.2392588 
H    -3.1931573   -2.2018617    1.8244305 
H     1.8826376   -4.1896804    2.3806282 
H     0.2309065   -3.1322123    4.2558206 
H    -2.1606569   -4.3951086    4.1056539 
H    -1.9855007   -6.2769222    2.1457824 
H     0.5073128   -6.1565192    1.0823856 
H     1.6698551   -1.8857567    0.4950541 
C     1.8378624   -3.4508110   -0.9844199 
H     1.7978400   -4.2900470   -0.2693335 
H     1.3905264   -3.7884327   -1.9317461 
H     2.8959631   -3.2150440   -1.1730529 
H    -3.2198238    0.0819861    1.8378506 
C    -4.3481155    1.1689433   -0.5121203 
C    -2.9686543    0.5318836   -0.2726750 
C    -2.5281733    0.6666577    1.2013977 
C    -2.5617274    2.1413507    1.6428958 
C    -3.9405513    2.7779794    1.3988551 
C    -4.3699811    2.6408624   -0.0703110 
H    -5.1139204    0.6031352    0.0539036 
H    -4.6148817    1.0789106   -1.5808296 
H    -2.2147023    1.0390191   -0.9085033 
H    -2.9825012   -0.5307299   -0.5724512 
H    -2.2785953    2.2466057    2.7040735 
H    -1.7988112    2.6884294    1.0569356 
H    -4.6896722    2.2855668    2.0494039 
H    -3.9119204    3.8407351    1.7006896 
H    -3.6742961    3.2221521   -0.7092415 
H    -5.3744624    3.0745071   -0.2211048 
H    -0.4343749    1.1932396    3.4238117 
C     1.3550338   -0.2896805    5.0280764 
C     0.9861754   -0.4275785    3.5376661 
C    -0.4371053    0.0990023    3.2543774 
C    -1.4909506   -0.5452659    4.1763709 
C    -1.1079968   -0.3487916    5.6558633 
C     0.2944575   -0.8988409    5.9615941 
H     1.4567919    0.7843143    5.2705685 
H     2.3425112   -0.7505945    5.2110752 
H     1.0421268   -1.4858221    3.2217597 
H     1.7130355    0.1233247    2.9105685 
H    -2.4857142   -0.1021581    3.9893181 
H    -1.5663165   -1.6227196    3.9363702 
H    -1.1339948    0.7337737    5.8894459 
H    -1.8615373   -0.8316853    6.3036446 
H     0.2880383   -2.0012177    5.8583456 
H     0.5619167   -0.6960028    7.0138034 
H    -1.3132753   -1.0760785   -1.9173927 
C    -1.7989282   -2.3424194   -4.2922927 
C    -0.4757214   -2.2539568   -3.5066602 
C    -0.4693785   -0.9829879   -2.6294521 
C    -0.7071205    0.2884431   -3.4697882 
C    -2.0096099    0.1836652   -4.2797741 
C    -2.0357550   -1.0857344   -5.1461295 
H    -2.6349800   -2.4655030   -3.5753266 
H    -1.7903562   -3.2463366   -4.9275228 
H     0.3679809   -2.2329098   -4.2174500 
H    -0.3529251   -3.1542464   -2.8846772 
H    -0.7412148    1.1673178   -2.8053290 
H     0.1462375    0.4545991   -4.1561736 
H    -2.8670955    0.1658626   -3.5775806 
H    -2.1276388    1.0873142   -4.9043962 
H    -1.2443757   -1.0162768   -5.9185210 
H    -2.9967382   -1.1642218   -5.6850837 
H     2.4151055    0.5974909   -2.7406975 
C     4.2132296   -0.8247278   -4.2286529 
C     2.8988141   -1.3071296   -3.5821802 
C     2.5587595   -0.4301037   -2.3575948 
C     3.7241676   -0.3918180   -1.3381425 
C     5.0321120    0.0719170   -2.0027704 
C     5.3744365   -0.7992201   -3.2223161 
H     4.0580153    0.1940115   -4.6361377 
H     4.4592695   -1.4736138   -5.0880504 
H     2.9960571   -2.3677501   -3.2903221 
H     2.0858928   -1.2486928   -4.3242136 
H     3.4627211    0.2669700   -0.4875239 
H     3.8791852   -1.4014285   -0.9129248 
H     4.9250948    1.1272109   -2.3225081 
H     5.8531941    0.0490515   -1.2641299 
H     5.5874006   -1.8323810   -2.8828580 
H     6.2953684   -0.4317467   -3.7088046 
