110
Energy =
C     2.1405404    1.9809406    1.0265169 
C     2.5044137    2.3210895   -0.3094330 
C     1.7321789    3.1984774   -1.0922155 
H     3.3947857    1.8491480   -0.7439954 
Pd    0.6152670    1.1273427   -0.3450137 
P    -1.1082539    0.5971144   -1.9471629 
P    -0.0586204   -0.4881444    1.1896089 
H     1.4853655    2.6913169    1.5546181 
H     0.9695265    3.7925128   -0.5671652 
C     4.7939834   -0.2000502    3.6252500 
C     4.1122346    0.9353601    4.0870641 
C     3.2347954    1.6225602    3.2384121 
C     3.0343490    1.1964573    1.9081607 
C     3.7325372    0.0552459    1.4538215 
C     4.5984985   -0.6397791    2.3050117 
H     5.4736406   -0.7428294    4.2902594 
H     4.2449508    1.2812563    5.1166773 
H     2.6974417    2.5002041    3.6130040 
H     3.5820451   -0.2983988    0.4287355 
H     5.1228562   -1.5285707    1.9383966 
C     2.7848781    4.7653138   -4.9549410 
C     3.4827348    3.6580686   -4.4418088 
C     3.1526356    3.1342456   -3.1899015 
C     2.1097891    3.7021871   -2.4170130 
C     1.4348451    4.8324254   -2.9390450 
C     1.7646665    5.3555677   -4.1942922 
H     3.0449733    5.1714413   -5.9376736 
H     4.2901003    3.2024650   -5.0242739 
H     3.7054930    2.2669684   -2.8149900 
H     0.6501169    5.3115675   -2.3432031 
H     1.2298642    6.2310500   -4.5764094 
Fe   -3.2636401   -2.1983418    1.3193278 
C    -1.8665812   -0.7109102    1.1799577 
C    -2.6419155   -0.8046813   -0.0451552 
C    -4.0263349   -0.6149637    0.3058762 
C    -4.1131382   -0.3963295    1.7208691 
C    -2.7921147   -0.4696729    2.2692542 
C    -3.8298866   -3.9525225    0.4072887 
C    -2.5649470   -4.1120439    1.0600672 
C    -2.7516837   -3.8231979    2.4570979 
C    -4.1278432   -3.4793758    2.6591422 
C    -4.7939939   -3.5547444    1.3913514 
C     0.2923563   -0.0932337    2.9483366 
C    -0.2531562    1.1107253    3.4477879 
C     0.0025811    1.5123786    4.7611683 
C     0.8181551    0.7186575    5.5859804 
C     1.3685683   -0.4725701    5.0958668 
C     1.1140133   -0.8750578    3.7784183 
C     0.7532714   -2.0963106    0.8348373 
C     1.6259088   -2.1858041   -0.2655491 
C     2.2683905   -3.3914637   -0.5701829 
C     2.0507558   -4.5164299    0.2395572 
C     1.1849325   -4.4382112    1.3438295 
C     0.5349355   -3.2343481    1.6349780 
C    -2.0560851   -0.9861323   -1.4210468 
H    -4.8753739   -0.6680954   -0.3770839 
H    -5.0331943   -0.2549321    2.2909371 
H    -2.5260006   -0.3689209    3.3218106 
H    -4.0281843   -4.1088384   -0.6541631 
H    -1.6326482   -4.4066090    0.5773666 
H    -1.9946077   -3.8630747    3.2417853 
H    -4.5824942   -3.1847417    3.6067326 
H    -5.8447890   -3.3257995    1.2042140 
H    -0.8785594    1.7376664    2.8016241 
H     1.5935909   -1.7802841    3.3989897 
H     1.7949761   -1.2948673   -0.8824571 
H    -0.1512773   -3.1764391    2.4823503 
H    -1.2178236   -1.7018907   -1.3243797 
C    -3.0783053   -1.5827852   -2.4057676 
H    -3.5224324   -2.4729757   -1.9319923 
H    -3.8944410   -0.8882745   -2.6472906 
H    -2.6102725   -1.9016470   -3.3474739 
C     1.2006871    1.2132322    6.9623005 
F     2.3179664    1.9914374    6.8917060 
F     0.2274321    1.9685486    7.5166026 
F     1.4770061    0.1968656    7.8072038 
H    -0.4215897    2.4432134    5.1485809 
H     2.0178491   -1.0764588    5.7355512 
H     2.9349954   -3.4628648   -1.4342688 
H     1.0127650   -5.3231983    1.9634274 
C     2.7888290   -5.8088627   -0.0468289 
F     3.9548107   -5.8601290    0.6401372 
F     2.0578472   -6.8868172    0.3154723 
F     3.0871990   -5.9293067   -1.3604507 
C    -0.4490037    0.1877837   -3.7082356 
C    -2.3350232    2.0729210   -1.9434114 
C    -1.4980340    0.3094980   -4.8339119 
H    -1.0278519   -0.0022086   -5.7848759 
H    -2.3792911   -0.3292566   -4.6753478 
H    -1.8407790    1.3479081   -4.9659511 
C    -3.7422908    1.7540727   -2.4854489 
H    -4.3344761    2.6878098   -2.4916101 
H    -3.7226157    1.3673086   -3.5160801 
H    -4.2733318    1.0362587   -1.8422722 
C     0.7296768    1.1379012   -3.9971917 
H     1.1648934    0.8886818   -4.9821197 
H     0.4382711    2.1977928   -4.0208811 
H     1.5185228    1.0199174   -3.2361013 
C     0.1277147   -1.2482154   -3.6668857 
H     0.6783363   -1.4313162   -4.6071621 
H     0.8413124   -1.3723927   -2.8349073 
H    -0.6437463   -2.0289826   -3.5817910 
C    -2.4494288    2.5355705   -0.4679967 
H    -3.1167533    3.4159716   -0.4209577 
H    -2.8682065    1.7560974    0.1875495 
H    -1.4618457    2.8328067   -0.0669129 
C    -1.7142878    3.2253555   -2.7574796 
H    -2.3041304    4.1436762   -2.5827350 
H    -0.6780337    3.4230562   -2.4463133 
H    -1.7187392    3.0308636   -3.8416635 
