142
Energy =
C     2.7725116    1.7158988   -1.4785809 
C     3.2197213    0.4696351   -0.9699575 
C     2.7766878   -0.7656681   -1.5004649 
H     3.8442231    0.4654465   -0.0690408 
Pd    1.0374802    0.4812575   -0.6498406 
P    -0.1869807   -1.3962337    0.1195543 
P    -0.4000588    2.1761751    0.0463187 
H     2.4003379    1.7388583   -2.5139068 
H     2.3774643   -0.7533718   -2.5248060 
C     4.1110499    5.5308330    0.0049940 
C     4.1884310    4.3979698    0.8318478 
C     3.7578622    3.1523817    0.3621324 
C     3.2311461    3.0108519   -0.9443227 
C     3.1754235    4.1569294   -1.7682596 
C     3.6107681    5.4021057   -1.2988652 
H     4.4336777    6.5078185    0.3765810 
H     4.5771779    4.4845280    1.8506482 
H     3.8286705    2.2849165    1.0260539 
H     2.7910423    4.0690845   -2.7887112 
H     3.5521390    6.2766392   -1.9546525 
C     4.1965774   -4.6242503   -0.2426507 
C     3.4285347   -4.4906558   -1.4082546 
C     2.9595782   -3.2307359   -1.7969060 
C     3.2332386   -2.0802418   -1.0219391 
C     3.9882432   -2.2365735    0.1646556 
C     4.4733446   -3.4910421    0.5400566 
H     4.5795592   -5.6058354    0.0547397 
H     3.2062539   -5.3665441   -2.0262321 
H     2.3815181   -3.1324917   -2.7203259 
H     4.2004607   -1.3741910    0.8032356 
H     5.0694408   -3.5863965    1.4521841 
Fe   -4.2415769    0.5122840   -2.3470204 
C    -2.4978043    1.0062334   -1.4368016 
C    -2.8906779   -0.3378850   -1.0602226 
C    -3.0275949   -1.1062611   -2.2732999 
H    -3.3148304   -2.1577711   -2.3172871 
C    -2.6812357   -0.2696628   -3.3835735 
H    -2.7031973   -0.5596934   -4.4356803 
C    -2.3527607    1.0295715   -2.8745433 
H    -2.0935701    1.9074544   -3.4721350 
C    -5.5134179    2.1159028   -2.3930899 
H    -5.2525310    3.1590320   -2.2034111 
C    -5.9552069    1.1588336   -1.4185365 
H    -6.1009045    1.3497212   -0.3539051 
C    -6.1836878   -0.0888448   -2.0928724 
H    -6.5176397   -1.0205718   -1.6324264 
C    -5.8881016    0.0997967   -3.4835379 
H    -5.9423537   -0.6650962   -4.2603338 
C    -5.4730818    1.4611298   -3.6692030 
H    -5.1578181    1.9127113   -4.6117256 
C    -2.9849904   -0.8734247    0.3234897 
C    -1.8162675   -1.3084505    1.0107070 
C    -1.9301812   -1.7970368    2.3291633 
H    -1.0379828   -2.1228729    2.8695545 
C    -3.1777707   -1.8745520    2.9621228 
H    -3.2374680   -2.2413382    3.9906412 
C    -4.3325919   -1.4748909    2.2795798 
H    -5.3123343   -1.5402431    2.7635161 
C    -4.2288393   -0.9799831    0.9731606 
H    -5.1180765   -0.6569699    0.4274399 
C     0.8963912   -2.1885060    1.3739132 
C     1.4466880   -1.3541891    2.3680170 
H     1.2673873   -0.2721962    2.3324584 
C     2.1917797   -1.8845591    3.4351420 
C     2.3919390   -3.2846574    3.4725201 
C     1.8634124   -4.1421530    2.4798459 
C     1.1195505   -3.5752337    1.4328064 
H     0.7221066   -4.2321446    0.6540949 
C    -0.5633594   -2.6408645   -1.1710008 
C    -1.2882521   -3.8076223   -0.8550376 
H    -1.6096657   -3.9919735    0.1763621 
C    -1.6249400   -4.7408113   -1.8482656 
C    -1.2397837   -4.4645863   -3.1834559 
C    -0.5227914   -3.2966064   -3.5296795 
C    -0.2004613   -2.3940756   -2.5043445 
H     0.3147603   -1.4614440   -2.7566733 
C    -0.2265209    2.1435194    1.8796353 
C     1.0139203    2.5838528    2.3850461 
H     1.7689458    2.9963960    1.7083474 
C     1.3042212    2.4864001    3.7515090 
C     0.3693271    1.9409886    4.6387771 
H     0.5892785    1.8779440    5.7072416 
C    -0.8474023    1.4636227    4.1324559 
C    -1.1502489    1.5542821    2.7657276 
H    -2.0986845    1.1522728    2.4116402 
C     0.0311789    3.9010077   -0.4605590 
C    -0.0108640    4.1292643   -1.8495093 
H    -0.1861755    3.2960217   -2.5392935 
C     0.1577002    5.4185639   -2.3673990 
C     0.4314169    6.4934411   -1.5128631 
H     0.5843546    7.4972893   -1.9180933 
C     0.5288122    6.2568592   -0.1344269 
C     0.3088999    4.9781294    0.3977104 
H     0.3592025    4.8459669    1.4806101 
C    -2.2263615    2.1875164   -0.5468085 
H    -2.1887343    3.0630629   -1.2150062 
C    -3.2731684    2.5108622    0.5324703 
H    -4.1857757    2.8643070    0.0286828 
H    -3.5479229    1.6306558    1.1309608 
H    -2.9229157    3.3100765    1.2074328 
C     0.1388439    5.6115924   -3.8669554 
F     1.3577630    5.3322668   -4.4075573 
F    -0.7514380    4.7767398   -4.4603314 
F    -0.1742256    6.8739016   -4.2138709 
C     0.8808244    7.4139948    0.7783461 
F     1.0983793    7.0075522    2.0487835 
F     2.0066998    8.0368817    0.3468239 
F    -0.1023611    8.3410065    0.8018518 
C     2.6600098    2.9517430    4.2345066 
F     3.6567713    2.2527947    3.6127475 
F     2.8672881    4.2580323    3.9454435 
F     2.8188427    2.7835402    5.5600449 
C    -1.8121726    0.7879834    5.0838697 
F    -3.0792450    0.7954834    4.6117785 
F    -1.4592815   -0.5115766    5.2817976 
F    -1.8143086    1.3851358    6.2941103 
C     2.7341757   -0.9955461    4.5298632 
H     2.9681100   -1.5859644    5.4288060 
H     3.6518258   -0.4686615    4.2103227 
H     1.9946541   -0.2247491    4.7994831 
C     2.0901585   -5.6314260    2.5720524 
H     1.8887544   -5.9921887    3.5947442 
H     1.4483896   -6.1756336    1.8610867 
H     3.1396219   -5.8893117    2.3401611 
C    -2.3726478   -6.0119172   -1.5202357 
H    -2.2911847   -6.2548728   -0.4485708 
H    -3.4486578   -5.9173448   -1.7586617 
H    -1.9821898   -6.8543536   -2.1145892 
C    -0.1291191   -3.0349188   -4.9642704 
H    -0.9606072   -2.5728502   -5.5295913 
H     0.7294390   -2.3454254   -5.0222494 
H     0.1284608   -3.9770489   -5.4749828 
O     3.0522871   -3.8462137    4.5440847 
O    -1.5191218   -5.3918788   -4.1625502 
C     4.4789597   -3.9229702    4.4427383 
H     4.8397459   -4.3034824    5.4098222 
H     4.7875695   -4.6195932    3.6399645 
H     4.9245395   -2.9280034    4.2500663 
C    -2.7703427   -5.2282885   -4.8438409 
H    -2.8312284   -6.0424979   -5.5810392 
H    -3.6233648   -5.3025912   -4.1427852 
H    -2.8188932   -4.2542401   -5.3672635 
