142
Energy =
C     1.2583649    2.9977649   -0.0863437 
C     1.6552230    2.6291251    1.2315093 
C     2.7729386    1.7893340    1.4378291 
H     1.0296410    2.9203077    2.0850353 
Pd    1.1498730    0.7524977    0.1560553 
P     1.2115499   -1.3180723    1.2333314 
P    -0.1970457    0.4018600   -1.7829179 
H     2.0430126    3.0237218   -0.8550042 
H     3.4804391    1.6961722    0.5988972 
C    -2.1594691    5.4466412   -0.9948830 
C    -2.1502125    4.6754041    0.1793783 
C    -1.0468606    3.8754931    0.4879019 
C     0.0720722    3.8221397   -0.3760962 
C     0.0486074    4.6023609   -1.5534295 
C    -1.0528758    5.4111013   -1.8558361 
H    -3.0236446    6.0751847   -1.2337481 
H    -3.0103196    4.6959563    0.8570287 
H    -1.0647350    3.2752859    1.4017467 
H     0.9061003    4.5687728   -2.2340813 
H    -1.0472472    6.0160657   -2.7684254 
C     4.4416140    0.4405899    5.1613836 
C     5.1789966    0.3668500    3.9700414 
C     4.6166438    0.8067595    2.7668732 
C     3.3095670    1.3478415    2.7316873 
C     2.5947404    1.4546147    3.9487935 
C     3.1498661    0.9939001    5.1458699 
H     4.8727339    0.0708465    6.0967857 
H     6.1894409   -0.0521193    3.9781696 
H     5.1912038    0.7282110    1.8377732 
H     1.6011178    1.9090120    3.9710930 
H     2.5724815    1.0759684    6.0725815 
Fe   -2.4403969   -3.9904938   -0.0984171 
C    -1.0590512   -2.5417142    0.1837369 
C    -1.6759851   -2.3832198   -1.1246606 
C    -3.0987734   -2.2565647   -0.9248715 
H    -3.8292665   -2.1304502   -1.7240169 
C    -3.3667845   -2.2760071    0.4792027 
H    -4.3501174   -2.2005991    0.9458864 
C    -2.1224816   -2.4573809    1.1662172 
H    -2.0144098   -2.5744105    2.2440476 
C    -1.5957965   -5.7555855    0.4944106 
H    -0.6237896   -5.8830575    0.9761333 
C    -1.8437088   -5.7739967   -0.9190658 
H    -1.0936085   -5.9322048   -1.6962306 
C    -3.2502582   -5.5645385   -1.1257699 
H    -3.7631619   -5.5205514   -2.0884207 
C    -3.8693053   -5.4226671    0.1619301 
H    -4.9283412   -5.2340489    0.3468582 
C    -2.8467722   -5.5401186    1.1637305 
H    -2.9872587   -5.4508434    2.2430670 
C    -1.0099269   -2.2796422   -2.4486661 
C    -0.2444534   -1.1394808   -2.8282177 
C     0.4150249   -1.1432961   -4.0768809 
H     1.0103859   -0.2790288   -4.3816987 
C     0.2951478   -2.2238434   -4.9598398 
H     0.8197514   -2.1979387   -5.9202953 
C    -0.5196336   -3.3106722   -4.6204588 
H    -0.6490697   -4.1472127   -5.3148645 
C    -1.1606758   -3.3277698   -3.3767706 
H    -1.7866070   -4.1742946   -3.0850670 
C     0.3600986    1.6530165   -3.0149921 
C     1.7521627    1.8009568   -3.1948047 
H     2.4454534    1.1954160   -2.5948696 
C     2.2776672    2.7026544   -4.1317715 
C     1.3669294    3.4719907   -4.8971362 
C    -0.0311090    3.3286072   -4.7572528 
C    -0.5159698    2.4172365   -3.8005412 
H    -1.5972599    2.3288859   -3.6664618 
C    -1.9532496    0.7133156   -1.3911587 
C    -2.9652841    0.6630025   -2.3722325 
H    -2.7161562    0.4102149   -3.4090092 
C    -4.3054132    0.8915846   -2.0300451 
C    -4.6200718    1.1438370   -0.6710461 
C    -3.6359045    1.1303211    0.3408126 
C    -2.3031748    0.9266837   -0.0497566 
H    -1.5180203    0.8918459    0.7139411 
C     2.9152308   -1.8768467    1.6497836 
C     3.3182901   -2.3644681    2.9058878 
H     2.6195865   -2.4233506    3.7429927 
C     4.6541190   -2.7289559    3.1200336 
C     5.6058836   -2.6108579    2.0962213 
H     6.6513786   -2.8759202    2.2742047 
C     5.2070228   -2.1059339    0.8526598 
C     3.8728459   -1.7410898    0.6282170 
H     3.5836644   -1.3266906   -0.3440882 
C     0.3243150   -1.1838322    2.8445382 
C     0.0800706   -2.2895474    3.6774464 
H     0.4686212   -3.2825887    3.4318387 
C    -0.7187104   -2.1496630    4.8225425 
C    -1.2517541   -0.9036067    5.1779162 
H    -1.8704876   -0.8039209    6.0738373 
C    -0.9874973    0.2049269    4.3593911 
C    -0.2271991    0.0582725    3.1944659 
H    -0.0677975    0.9156116    2.5351506 
C     0.3875527   -2.8514484    0.4979023 
H     0.3930156   -3.5803814    1.3274493 
C     1.2223872   -3.4338360   -0.6529758 
H     0.6453947   -4.2362468   -1.1398363 
H     1.4614616   -2.6817625   -1.4218735 
H     2.1653383   -3.8585072   -0.2724728 
C    -1.0866999   -3.3989593    5.5942618 
F    -1.5546787   -3.1215139    6.8254113 
F    -2.0571445   -4.0859124    4.9293565 
F    -0.0278505   -4.2308984    5.7177974 
C    -1.4767213    1.5765830    4.7654932 
F    -1.4576372    2.4467495    3.7153789 
F    -2.7343965    1.5465682    5.2473328 
F    -0.6793737    2.1078183    5.7245860 
C     5.0945041   -3.2347794    4.4786603 
F     6.2697065   -2.6681075    4.8504395 
F     4.1829850   -2.9505879    5.4389042 
F     5.2793654   -4.5728034    4.4722571 
C     6.2235832   -1.8194653   -0.2296420 
F     5.7467492   -2.1340150   -1.4563248 
F     6.5171588   -0.4864905   -0.2535514 
F     7.3783962   -2.4844137   -0.0415872 
C     3.7639297    2.8602861   -4.3469808 
H     4.1169024    3.8488682   -4.0003555 
H     4.3297407    2.0871576   -3.8022044 
H     4.0092258    2.7961293   -5.4205152 
C    -0.9786415    4.1346354   -5.6135885 
H    -1.9260670    3.5933339   -5.7694461 
H    -1.2287379    5.1005094   -5.1355339 
H    -0.5241342    4.3550141   -6.5929433 
C    -5.4126414    0.8363441   -3.0555271 
H    -6.2217409    0.1651564   -2.7200997 
H    -5.8698155    1.8316353   -3.2042443 
H    -5.0350228    0.4864229   -4.0297860 
C    -4.0042915    1.2807056    1.7978304 
H    -3.8306551    2.3104679    2.1611099 
H    -5.0663424    1.0364358    1.9570993 
H    -3.3910301    0.6081588    2.4206733 
O     1.8813455    4.3301365   -5.8433961 
O    -5.9469312    1.3106829   -0.3389484 
C     1.9910471    5.7031592   -5.4437477 
H     2.4389071    6.2396475   -6.2932363 
H     1.0005139    6.1405754   -5.2155249 
H     2.6434638    5.8093659   -4.5556099 
C    -6.3701588    2.6697140   -0.1586789 
H    -6.2169481    3.2595954   -1.0825346 
H    -7.4432847    2.6320685    0.0806028 
H    -5.8245037    3.1571374    0.6718969 
