112
Energy =
C     0.3043316    0.4747634   -3.0602058 
C    -0.7448820    1.3910178   -2.8088158 
C    -0.5299538    2.5568507   -2.0201693 
H    -1.7650365    1.1385294   -3.1232773 
Pd   -0.0903540    0.6904068   -0.8189693 
P     0.2944048    1.7073762    1.2606319 
P     0.4191895   -1.4004631    0.0859664 
H     1.3289302    0.8414979   -2.8937101 
H     0.4872038    2.9732498   -2.0161740 
C     0.2542058   -2.8829683   -5.7509923 
C     1.4221559   -2.5357902   -5.0548590 
C     1.4118924   -1.4552557   -4.1652280 
C     0.2345318   -0.7015770   -3.9436192 
C    -0.9376847   -1.0739997   -4.6432443 
C    -0.9242055   -2.1473965   -5.5398088 
H     0.2608806   -3.7195355   -6.4569037 
H     2.3462310   -3.1007583   -5.2149271 
H     2.3316710   -1.1759236   -3.6383032 
H    -1.8638175   -0.5065121   -4.5073639 
H    -1.8379938   -2.4107956   -6.0820447 
C    -3.5492422    5.4506468   -1.0053580 
C    -2.1876372    5.7851767   -0.9612187 
C    -1.2176562    4.8287429   -1.2785469 
C    -1.5857006    3.5179320   -1.6589379 
C    -2.9632340    3.1960899   -1.7002711 
C    -3.9320003    4.1510518   -1.3745979 
H    -4.3091613    6.1980675   -0.7553243 
H    -1.8789458    6.7951623   -0.6742479 
H    -0.1566324    5.0975983   -1.2419617 
H    -3.2853131    2.1899415   -1.9874623 
H    -4.9923413    3.8805143   -1.4128711 
Fe   -2.6340974   -1.0084719    1.6165180 
C    -0.6857575   -1.6093509    1.5139242 
C    -0.8604067   -0.5961591    2.5510227 
C    -1.8317621   -1.1098422    3.4845446 
C    -2.2541067   -2.4047907    3.0482904 
C    -1.5587140   -2.7168576    1.8379391 
C    -3.3806491   -0.5744225   -0.2506184 
C    -4.1968374   -1.5475845    0.4143541 
C    -4.6680491   -0.9640513    1.6393587 
C    -4.1358143    0.3669048    1.7330245 
C    -3.3407481    0.6051142    0.5610781 
C     0.0126543    0.6162506    2.7996358 
H    -2.1979007   -0.5945245    4.3727669 
H    -3.0022938   -3.0331422    3.5346985 
H    -1.6835724   -3.6313702    1.2595445 
H    -2.8647416   -0.7035327   -1.2020690 
H    -4.4107111   -2.5583061    0.0618580 
H    -5.3000961   -1.4552502    2.3814736 
H    -4.3071517    1.0645943    2.5552424 
H    -2.8126128    1.5224174    0.3030276 
H     2.2495506   -0.3990687    1.1944226 
C     4.6279222   -1.3180543    0.2553907 
C     3.2179999   -1.5322680   -0.3262138 
C     2.1561832   -1.4246377    0.7886861 
C     2.4244731   -2.3892822    1.9623619 
C     3.8360515   -2.1372747    2.5258969 
C     4.9071117   -2.2710543    1.4298818 
H     4.7110191   -0.2714665    0.6055571 
H     5.3836200   -1.4501787   -0.5399143 
H     3.1634165   -2.5276709   -0.8071394 
H     3.0089957   -0.7812218   -1.1122040 
H     1.6603595   -2.2514761    2.7489323 
H     2.3455249   -3.4385165    1.6286804 
H     3.8776739   -1.1158260    2.9550242 
H     4.0383419   -2.8397583    3.3540574 
H     4.9205594   -3.3157745    1.0607267 
H     5.9098825   -2.0727844    1.8486087 
H     0.8867132   -2.6279281   -1.8799491 
C    -1.3972748   -4.1283540   -2.5650555 
C    -1.2175296   -2.9492867   -1.5955308 
C     0.2200918   -2.8820136   -1.0318333 
C     0.6946942   -4.2330219   -0.4466259 
C     0.4824894   -5.3814949   -1.4511036 
C    -0.9762296   -5.4583058   -1.9239693 
H    -0.7831233   -3.9494897   -3.4656838 
H    -2.4491664   -4.1672591   -2.9015075 
H    -1.9415701   -3.0365473   -0.7668700 
H    -1.4411507   -1.9992104   -2.1111068 
H     1.7627620   -4.1726368   -0.1808550 
H     0.1512841   -4.4586753    0.4886945 
H     1.1401583   -5.2208732   -2.3280278 
H     0.7975269   -6.3334523   -0.9873903 
H    -1.6334153   -5.6829883   -1.0597133 
H    -1.1041712   -6.2881258   -2.6416338 
H     1.0334484    0.2210688    2.9682515 
C    -0.3946401    1.4032469    4.0574977 
H    -0.2669665    0.7645466    4.9480678 
H     0.2196374    2.3080021    4.1894390 
H    -1.4465266    1.7259510    4.0101184 
C     4.8880100    2.5768333    1.3218703 
C     4.2012600    2.4069340    2.5338203 
C     2.8231996    2.1497135    2.5359269 
C     2.1144402    2.0425362    1.3195375 
C     2.8163182    2.2139625    0.1082384 
C     4.1914946    2.4846971    0.1079784 
H     5.9639707    2.7786569    1.3244160 
H     4.7385991    2.4811865    3.4848369 
H     2.3071449    2.0403964    3.4942277 
H     2.2776625    2.1167845   -0.8406476 
H     4.7203350    2.6123487   -0.8420364 
C    -1.5700683    5.8342483    2.3603558 
C    -2.3721615    4.6845441    2.3043671 
C    -1.8087664    3.4495474    1.9655558 
C    -0.4309552    3.3444395    1.6789097 
C     0.3658547    4.5081168    1.7183772 
C    -0.2034790    5.7424035    2.0636526 
H    -2.0112900    6.7995596    2.6284834 
H    -3.4427711    4.7476077    2.5231928 
H    -2.4383887    2.5585093    1.9480825 
H     1.4344303    4.4532978    1.4904954 
H     0.4289652    6.6355727    2.0995914 
