122
Energy =
C     1.1771511   -1.7069778   -2.9750321 
C     2.0167925   -0.6110179   -2.6478076 
C     2.9205290   -0.6610932   -1.5603494 
H     1.8863643    0.3352736   -3.1856636 
Pd    0.7210702   -0.9177568   -0.8726789 
P     1.0061616    0.3103665    1.0963704 
P    -1.4719747   -1.8071781   -0.7790569 
H     1.4883370   -2.7009048   -2.6220855 
H     3.1943890   -1.6564910   -1.1793976 
C    -1.5071243   -1.8528482   -6.3308257 
C    -1.0937727   -3.0286883   -5.6885991 
C    -0.2250081   -2.9619268   -4.5934202 
C     0.2472282   -1.7185530   -4.1159546 
C    -0.1672567   -0.5409993   -4.7840004 
C    -1.0352254   -0.6094943   -5.8763318 
H    -2.1885559   -1.9019833   -7.1863283 
H    -1.4476731   -4.0031933   -6.0403453 
H     0.0998313   -3.8829602   -4.0982003 
H     0.1809520    0.4406419   -4.4472665 
H    -1.3495930    0.3122138   -6.3764245 
C     5.6928946    2.4359311   -0.4494600 
C     5.7110251    1.1916045    0.1976835 
C     4.8086180    0.1911293   -0.1809171 
C     3.8486913    0.4207685   -1.1948857 
C     3.8510752    1.6776039   -1.8465856 
C     4.7688975    2.6666913   -1.4825310 
H     6.3924278    3.2238555   -0.1546817 
H     6.4391156    0.9945888    0.9912171 
H     4.8558115   -0.7894174    0.3011277 
H     3.1328435    1.8899290   -2.6438411 
H     4.7581434    3.6325762   -1.9963295 
Fe   -3.2684932    2.0310601    2.2767618 
C    -1.6309602    1.1252005    1.5001882 
C    -2.8200060    0.3449270    1.1875645 
C    -3.7294482    1.2108223    0.4761975 
H    -4.7131505    0.9150650    0.1114077 
C    -3.1071952    2.4877624    0.3020228 
H    -3.5458551    3.3536026   -0.1959967 
C    -1.8252907    2.4463372    0.9401147 
H    -1.1324419    3.2837647    1.0329594 
C    -2.8002129    2.6893525    4.1549207 
H    -1.8051815    2.7065899    4.6044813 
C    -3.7412695    1.6086387    4.2311557 
H    -3.5918542    0.6694848    4.7671001 
C    -4.9166197    1.9896595    3.4974770 
H    -5.8180087    1.3893267    3.3602601 
C    -4.7022567    3.3081093    2.9742679 
H    -5.4007089    3.8742000    2.3554048 
C    -3.3955447    3.7411394    3.3812390 
H    -2.9271534    4.6929962    3.1237984 
C    -3.0718760   -1.0921251    1.4890084 
C    -2.4432604   -2.1470092    0.7664603 
C    -2.6583121   -3.4829720    1.1676858 
H    -2.1750739   -4.2998985    0.6259967 
C    -3.5118100   -3.7921554    2.2347018 
H    -3.6583592   -4.8371675    2.5257877 
C    -4.1940678   -2.7637507    2.8946973 
H    -4.8915722   -2.9909447    3.7074032 
C    -3.9687872   -1.4342777    2.5187241 
H    -4.4765050   -0.6188002    3.0364845 
C     2.3426216   -0.2459114    2.2224348 
C     2.7928052    0.5099646    3.3205801 
H     2.3294178    1.4683042    3.5741890 
C     3.8480852    0.0395139    4.1144351 
C     4.4433254   -1.2028080    3.8522837 
H     5.2687131   -1.5620449    4.4712806 
C     3.9571963   -1.9792474    2.7921352 
C     2.9132367   -1.5067270    1.9853085 
H     2.5466479   -2.1174074    1.1532990 
C     1.4678350    1.9857560    0.4754892 
C     0.7680619    2.3782435   -0.6779688 
H     0.0344697    1.6964535   -1.1199048 
C     0.9973272    3.6254897   -1.2706949 
C     1.9287031    4.5094182   -0.7169516 
H     2.1228147    5.4775685   -1.1860333 
C     2.6395211    4.1136322    0.4285199 
C     2.4208577    2.8627621    1.0232569 
H     3.0344992    2.5811223    1.8809245 
C    -0.4172407    0.7039950    2.2870838 
H    -0.0593668    1.5934248    2.8379960 
C    -0.6234808   -0.4545871    3.2774750 
H    -1.5518453   -0.2756029    3.8428719 
H    -0.7220738   -1.4268820    2.7683506 
H     0.2165544   -0.5184412    3.9872643 
C     0.2502288    3.9334696   -2.5455914 
F     0.5180246    5.1568514   -3.0296585 
F     0.5761251    3.0228990   -3.5171095 
F    -1.0929940    3.8311716   -2.3715463 
C     3.6687096    5.0619675    1.0095635 
F     4.4714030    4.4468366    1.9075571 
F     4.4606541    5.5767584    0.0353343 
F     3.0761571    6.1045265    1.6336456 
C     4.3364433    0.9248197    5.2432467 
F     5.3428846    0.3607381    5.9373746 
F     4.7769298    2.1111691    4.7535969 
F     3.3309789    1.2021739    6.1073217 
C     4.5816085   -3.3104867    2.4361814 
F     5.2009523   -3.2298253    1.2232521 
F     5.4952734   -3.7111141    3.3370332 
F     3.6406612   -4.2782910    2.3248553 
C    -1.0978592   -6.1142004   -2.5239632 
C    -0.1387429   -5.6032149   -1.6335460 
C    -0.2705978   -4.2993268   -1.1383799 
C    -1.3635598   -3.4920210   -1.5240250 
C    -2.3146638   -4.0077459   -2.4232011 
C    -2.1806981   -5.3147829   -2.9163761 
H    -0.9961467   -7.1321463   -2.9138223 
H     0.7112309   -6.2203595   -1.3247277 
H     0.4786225   -3.9029363   -0.4406500 
H    -3.1486497   -3.3878591   -2.7621629 
H    -2.9228413   -5.7028424   -3.6216109 
C    -4.4638075    0.7402673   -3.2578630 
C    -4.9236289   -0.4020125   -2.5804617 
C    -4.0345427   -1.1843232   -1.8323764 
C    -2.6665279   -0.8392431   -1.7802722 
C    -2.2176674    0.3073769   -2.4572370 
C    -3.1107432    1.0996046   -3.1896926 
H    -5.1661525    1.3549847   -3.8304499 
H    -5.9830617   -0.6756227   -2.6230170 
H    -4.4080482   -2.0448754   -1.2666770 
H    -1.1601447    0.5824013   -2.3988082 
H    -2.7453864    1.9985962   -3.6950350 
