122
Energy =
C     1.3967076   -1.7553171   -2.7475866 
C     2.1906750   -0.6166933   -2.4399864 
C     3.0085527   -0.5710813   -1.2879195 
H     2.0803924    0.2882588   -3.0490650 
Pd    0.7539982   -0.8474111   -0.7655512 
P     0.9002562    0.5010887    1.1462828 
P    -1.3775412   -1.8566923   -0.7108893 
H     1.7122972   -2.7168364   -2.3172744 
H     3.2634637   -1.5292223   -0.8102952 
C    -1.0705855   -2.1778186   -6.2441556 
C    -0.6585286   -3.3018736   -5.5143616 
C     0.1416692   -3.1455274   -4.3767311 
C     0.5437885   -1.8622376   -3.9431499 
C     0.1313296   -0.7376872   -4.6977929 
C    -0.6669436   -0.8958332   -5.8332976 
H    -1.6979564   -2.2971932   -7.1334329 
H    -0.9591103   -4.3058855   -5.8311853 
H     0.4676064   -4.0261603   -3.8135528 
H     0.4248888    0.2726232   -4.3947283 
H    -0.9807565   -0.0142305   -6.4015553 
C     5.5421449    2.6895676   -0.0820808 
C     5.5247460    1.4894056    0.6436736 
C     4.7097955    0.4311771    0.2248861 
C     3.8685435    0.5596626   -0.9059706 
C     3.9089963    1.7727084   -1.6356802 
C     4.7439283    2.8180219   -1.2318636 
H     6.1718530    3.5233883    0.2427859 
H     6.1448925    1.3765395    1.5383049 
H     4.7233071   -0.5148070    0.7748490 
H     3.2845530    1.9060821   -2.5238040 
H     4.7638886    3.7493117   -1.8057901 
Fe   -3.4777273    2.1085967    1.9792431 
C    -1.7469047    1.2332053    1.4016481 
C    -2.8680490    0.3675536    1.0650271 
C    -3.7599923    1.1258689    0.2217483 
H    -4.6983528    0.7516782   -0.1879218 
C    -3.1875419    2.4171761   -0.0093472 
H    -3.6286615    3.2174809   -0.6053863 
C    -1.9572284    2.4933526    0.7204919 
H    -1.3115798    3.3698277    0.7940117 
C    -3.1812005    2.9949912    3.7968381 
H    -2.2190722    3.1505637    4.2894127 
C    -4.0268626    1.8445038    3.9413793 
H    -3.8276107    0.9828691    4.5812081 
C    -5.1863242    2.0381303    3.1149081 
H    -6.0222558    1.3457324    2.9981676 
C    -5.0579464    3.3101826    2.4651025 
H    -5.7657221    3.7423436    1.7554332 
C    -3.8202680    3.9022897    2.8870356 
H    -3.4223760    4.8619886    2.5517948 
C    -3.0674473   -1.0553643    1.4624285 
C    -2.3826703   -2.1308676    0.8255813 
C    -2.5561912   -3.4445342    1.3115569 
H    -2.0324825   -4.2762824    0.8338951 
C    -3.4162847   -3.7147934    2.3839886 
H    -3.5295819   -4.7432229    2.7414286 
C    -4.1449544   -2.6713756    2.9655129 
H    -4.8452035   -2.8699133    3.7833549 
C    -3.9650210   -1.3625587    2.5022640 
H    -4.5111804   -0.5345325    2.9565390 
C     2.2119066   -0.1056949    2.2787766 
C     2.8869912    0.6359405    3.2659322 
H     2.6230390    1.6737786    3.4825690 
C     3.9287627    0.0446290    3.9957446 
C     4.2904127   -1.2955959    3.7845968 
H     5.1093498   -1.7447876    4.3522950 
C     3.5818189   -2.0473049    2.8393020 
C     2.5492177   -1.4582830    2.1007510 
H     2.0148275   -2.0485939    1.3473008 
C     1.3482861    2.1514649    0.4569904 
C     2.1783548    3.1316649    1.0277254 
H     2.7039922    2.9623289    1.9677207 
C     2.3896761    4.3450286    0.3576447 
C     1.7766861    4.6098478   -0.8784560 
H     1.9608532    5.5523253   -1.4010058 
C     0.9533217    3.6319923   -1.4452734 
C     0.7426785    2.4169888   -0.7833796 
H     0.0979769    1.6568615   -1.2380539 
C    -0.5595158    0.9265421    2.2764266 
H    -0.2526282    1.8676768    2.7692656 
C    -0.7581486   -0.1622888    3.3429079 
H    -1.7037464    0.0294522    3.8748990 
H    -0.8182645   -1.1717384    2.9045842 
H     0.0683061   -0.1495073    4.0715661 
C     3.3100721    5.3923724    0.9508863 
F     4.1974500    5.8367827    0.0256975 
F     2.6158218    6.4668721    1.3862554 
F     4.0184946    4.9071859    1.9963652 
C     0.3219246    3.7985736   -2.8064961 
F    -1.0104689    3.5357266   -2.7695673 
F     0.4936334    5.0277715   -3.3182772 
F     0.8609266    2.9029122   -3.6921091 
C     4.7308762    0.9010655    4.9552302 
F     5.3151221    0.1649492    5.9204773 
F     5.7160246    1.5591049    4.2891819 
F     3.9556341    1.8383171    5.5470603 
C     3.9773687   -3.4632495    2.4863757 
F     2.8882225   -4.2598229    2.3467951 
F     4.6231787   -3.4764195    1.2849042 
F     4.7936446   -4.0178643    3.3976626 
C    -0.6588083   -6.2411013   -2.1256520 
C     0.2041980   -5.6235074   -1.2047752 
C    -0.0305102   -4.3017328   -0.8050900 
C    -1.1329791   -3.5817590   -1.3181438 
C    -1.9875017   -4.2045706   -2.2460455 
C    -1.7503402   -5.5298316   -2.6428411 
H    -0.4757330   -7.2733855   -2.4409525 
H     1.0599474   -6.1709594   -0.7964878 
H     0.6454211   -3.8286852   -0.0810573 
H    -2.8256653   -3.6544870   -2.6815355 
H    -2.4183421   -6.0014054   -3.3709621 
C    -4.4066509    0.3003776   -3.4921310 
C    -4.8252073   -0.8153702   -2.7469356 
C    -3.9228588   -1.4815346   -1.9077913 
C    -2.5825831   -1.0450723   -1.8293152 
C    -2.1751554    0.0758308   -2.5725283 
C    -3.0824632    0.7507637   -3.3988723 
H    -5.1194147    0.8236044   -4.1380763 
H    -5.8628864   -1.1592538   -2.8100154 
H    -4.2652998   -2.3225361   -1.2949242 
H    -1.1420846    0.4263746   -2.4892961 
H    -2.7513210    1.6310185   -3.9582703 
