124
Energy =
C     2.1713249    1.9091044   -2.2381025 
C     3.0390735    1.5965011   -1.1631150 
C     3.5063415    0.2588175   -0.9735762 
H     3.2213982    2.3395432   -0.3760657 
Pd    1.2907943    0.3257277   -0.8536752 
P     0.7545432   -1.4737332    0.4969627 
P    -0.9520407    1.1158788   -0.7998836 
H     2.1661561    1.2097333   -3.0889643 
H     3.6647359   -0.3493462   -1.8771081 
C     0.4064329    5.7151909   -3.1645163 
C     0.1840704    4.6016745   -3.9882043 
C     0.7657210    3.3697250   -3.6705503 
C     1.5713937    3.2215755   -2.5173314 
C     1.7759751    4.3505490   -1.6902855 
C     1.2041184    5.5833601   -2.0158607 
H    -0.0388958    6.6835216   -3.4147116 
H    -0.4357032    4.6945415   -4.8859332 
H     0.5969761    2.5067880   -4.3225917 
H     2.3937209    4.2713764   -0.7910555 
H     1.3789965    6.4478474   -1.3680682 
C     5.6822524   -1.0572386    2.5029920 
C     4.6235016   -0.1432249    2.6429544 
C     3.9246614    0.3019662    1.5166386 
C     4.2659407   -0.1627650    0.2245796 
C     5.3328320   -1.0776284    0.0984559 
C     6.0375649   -1.5175063    1.2274003 
H     6.2244761   -1.4100565    3.3861247 
H     4.3382720    0.2167368    3.6373752 
H     3.0769125    0.9873366    1.6387742 
H     5.6068895   -1.4559267   -0.8919043 
H     6.8548362   -2.2349863    1.1095471 
Fe   -1.2288212   -0.8980088    3.5230073 
C     0.0006646   -0.6418778    1.9186269 
C    -1.1846014    0.1917407    1.7809086 
C    -1.2393628    1.0511051    2.9334940 
C    -0.1024579    0.7805451    3.7625219 
C     0.6683256   -0.2583425    3.1488165 
C    -2.8794751   -2.1245266    3.5872744 
C    -1.7066133   -2.8682615    3.9540552 
C    -1.1008761   -2.2276990    5.0841353 
C    -1.9103532   -1.0948055    5.4312869 
C    -3.0074290   -1.0299362    4.5063387 
C     1.8958871   -2.7226357    1.2037650 
C     2.9484978   -3.2406750    0.4280550 
C     3.7761491   -4.2364853    0.9604784 
C     3.5725953   -4.7182941    2.2652848 
C     2.5146158   -4.2068305    3.0240348 
C     1.6716422   -3.2196007    2.4955898 
C    -0.5197995   -2.5361417   -0.3070489 
C    -0.5332181   -2.6389484   -1.7088283 
C    -1.4964664   -3.4358617   -2.3410953 
C    -2.4517407   -4.1329621   -1.5851976 
C    -2.4346224   -4.0231516   -0.1879477 
C    -1.4671864   -3.2360343    0.4525353 
C    -2.0439998    0.2822509    0.5466933 
H    -2.0207680    1.7813351    3.1453603 
H     0.1176211    1.2525374    4.7217563 
H     1.5963904   -0.6800196    3.5372608 
H    -3.5623942   -2.3592872    2.7697125 
H    -1.3462447   -3.7836972    3.4818497 
H    -0.1872003   -2.5489623    5.5872282 
H    -1.7139080   -0.3908370    6.2420120 
H    -3.7930334   -0.2722506    4.4983687 
H     3.1272400   -2.8704511   -0.5847191 
H     0.8369330   -2.8368056    3.0895871 
H     0.2020496   -2.0951107   -2.3092000 
H    -1.4625656   -3.1263495    1.5386891 
H    -2.2170460   -0.7265487    0.1365721 
C    -3.3933614    0.9639510    0.8080758 
H    -3.8527448    0.5059256    1.7018605 
H    -3.2772926    2.0455472    0.9929910 
H    -4.0855096    0.8208229   -0.0346848 
C     4.9042843   -4.8221660    0.1373213 
F     4.6579062   -6.1104904   -0.1851218 
F     5.0942828   -4.1401965   -1.0192974 
F     6.0737138   -4.7984459    0.8226402 
C     2.2349627   -4.6795795    4.4329917 
F     0.9698218   -5.1636441    4.5402564 
F     3.0848651   -5.6392417    4.8382957 
F     2.3236298   -3.6431009    5.3127375 
C    -1.5488675   -3.5135925   -3.8520608 
F    -1.7446324   -4.7777058   -4.2787078 
F    -2.5678748   -2.7616490   -4.3425469 
F    -0.4051211   -3.0531350   -4.4175089 
C    -3.4940557   -4.7058509    0.6501990 
F    -4.0869787   -5.7217138   -0.0028316 
F    -2.9757813   -5.1885129    1.8047037 
F    -4.4701883   -3.8195197    0.9980361 
H     4.2309480   -5.4844465    2.6834542 
H    -3.2003679   -4.7587385   -2.0786853 
C    -3.0505825    0.8211413   -4.9142423 
C    -3.7839717    1.3734939   -3.8470973 
C    -3.1672555    1.4675644   -2.5861668 
C    -1.8471633    1.0093584   -2.3921907 
C    -1.1477229    0.4501275   -3.4808960 
C    -1.7318979    0.3575787   -4.7563117 
H    -3.5223721    0.7516713   -5.9020568 
H    -3.7276464    1.9153287   -1.7611531 
H    -0.1202408    0.0965179   -3.3309258 
C    -5.2037098    1.8516424   -4.0567779 
H    -5.2627439    2.5625099   -4.8998306 
H    -5.8699920    1.0039304   -4.2997963 
H    -5.6021940    2.3495915   -3.1577795 
C    -0.9735489   -0.2224648   -5.9284587 
H    -1.4559913   -1.1500979   -6.2813674 
H    -0.9555266    0.4859020   -6.7755111 
H     0.0661182   -0.4677470   -5.6582021 
C    -0.7668080    5.4453566    0.8140307 
C     0.0194226    4.4317946    1.3952013 
C    -0.0494487    3.1411025    0.8464819 
C    -0.8997510    2.8626223   -0.2455728 
C    -1.6485917    3.8983321   -0.8266851 
C    -1.5890213    5.2039877   -0.3013255 
H    -0.7170162    6.4601658    1.2275548 
H     0.5710613    2.3416213    1.2688890 
H    -2.2641495    3.7062209   -1.7099641 
C     0.9494737    4.7310083    2.5501342 
H     1.2478538    3.8079584    3.0752500 
H     1.8715755    5.2277580    2.1927951 
H     0.4785223    5.4101006    3.2812863 
C    -2.4028839    6.3160310   -0.9238829 
H    -3.3890148    6.4047960   -0.4302979 
H    -1.8959546    7.2903051   -0.8233432 
H    -2.5821672    6.1270739   -1.9954692 
