110
Energy =
C    -3.6220670    0.6466023    0.0413969 
C    -2.7985246    1.7884926   -0.0523699 
C    -1.9249972    2.0110505   -1.1471903 
H    -2.7984530    2.5067265    0.7754995 
Pd   -1.2518341    0.1792110    0.0233112 
P     0.9810588    0.6318784   -0.3884351 
P    -0.9591467   -2.0708764    0.8280158 
H    -3.8114310    0.0918789   -0.8887423 
H    -2.1095776    1.4176119   -2.0553829 
C    -6.6050956    0.0451948    3.0866255 
C    -5.5289518    0.9163152    3.3285692 
C    -4.5498022    1.1162598    2.3523262 
C    -4.6195980    0.4495047    1.1050122 
C    -5.7204765   -0.4086363    0.8713136 
C    -6.6996735   -0.6116061    1.8510287 
H    -7.3687632   -0.1123363    3.8549772 
H    -5.4532760    1.4394786    4.2873992 
H    -3.7104548    1.7850253    2.5704414 
H    -5.8155151   -0.9097665   -0.0982782 
H    -7.5438807   -1.2777273    1.6454652 
C     0.0104915    5.7546050   -2.0075702 
C     0.0000677    4.7193763   -2.9543631 
C    -0.6040374    3.4942090   -2.6468406 
C    -1.2087328    3.2765022   -1.3864424 
C    -1.1695136    4.3242372   -0.4359114 
C    -0.5729303    5.5495124   -0.7455706 
H     0.4718110    6.7178166   -2.2486734 
H     0.4510402    4.8692862   -3.9407640 
H    -0.6260998    2.6981357   -3.3983442 
H    -1.6105803    4.1881190    0.5558537 
H    -0.5476820    6.3432396    0.0067399 
Fe    3.7196333   -1.6421196    0.0687586 
C     2.1544295   -0.4230044    0.5114102 
C     1.9163130   -1.7784847    0.9832771 
C     2.9851471   -2.0881536    1.9048948 
C     3.8724195   -0.9672923    1.9884599 
C     3.3751635    0.0581389    1.1273335 
C     3.8783614   -1.9637081   -1.9533392 
C     5.0111245   -1.2271309   -1.4638484 
C     5.6524159   -2.0216462   -0.4550365 
C     4.9159784   -3.2469103   -0.3202155 
C     3.8214096   -3.2093988   -1.2483318 
C     1.3880106    2.2793001    0.3269546 
C     1.0337063    2.4584380    1.6833942 
C     1.2900428    3.6697708    2.3297229 
C     1.9061068    4.7182415    1.6248148 
C     2.2618976    4.5481185    0.2806740 
C     1.9964848    3.3361231   -0.3703240 
C     1.5023922    0.6539505   -2.1470789 
C     2.7938412    1.0761137   -2.5239842 
C     3.1752350    1.0656248   -3.8691816 
C     2.2765197    0.6081333   -4.8479393 
C     1.0013596    0.1530311   -4.4797280 
C     0.6160726    0.1836131   -3.1333864 
C     0.8149333   -2.7331368    0.5579144 
H     3.1317252   -3.0322729    2.4291441 
H     4.7874038   -0.9203720    2.5813422 
H     3.8111643    1.0471827    0.9783958 
H     3.1806255   -1.6356290   -2.7247714 
H     5.3412348   -0.2448716   -1.8035899 
H     6.5340025   -1.7372123    0.1221236 
H     5.1390540   -4.0548247    0.3791929 
H     3.0735747   -3.9915934   -1.3940414 
H     0.5546745    1.6402196    2.2338671 
H     2.2368878    3.2435100   -1.4313463 
H     3.5130821    1.3888866   -1.7620039 
H    -0.3789868   -0.1668967   -2.8420461 
H     0.8367764   -2.7821292   -0.5474104 
C     1.1178283   -4.1385393    1.1174834 
H     2.1093219   -4.4532354    0.7504741 
H     1.1597704   -4.1340577    2.2171528 
H     0.3870948   -4.8930029    0.8101161 
C     2.0955467    6.0631361    2.2891898 
F     0.9920582    6.8441600    2.1143239 
F     2.2876606    5.9450175    3.6212826 
F     3.1445499    6.7385364    1.7716328 
H     1.0173329    3.8059764    3.3802005 
H     2.7294721    5.3703462   -0.2676884 
H     4.1767245    1.3926929   -4.1632190 
H     0.3163409   -0.2239622   -5.2446089 
C     2.6704254    0.6458656   -6.3106905 
F     2.0589892   -0.3336041   -7.0142914 
F     2.3180152    1.8278062   -6.8718632 
F     4.0050036    0.5041456   -6.4699652 
C    -2.0356841   -3.1677655   -0.3404689 
C    -1.3745355   -2.3047769    2.6802557 
C    -1.7070329   -4.6742962   -0.3906375 
H    -2.4653607   -5.1661934   -1.0274171 
H    -0.7249159   -4.8732296   -0.8486164 
H    -1.7493485   -5.1541052    0.5996392 
C    -1.6821745   -3.7582286    3.0960378 
H    -1.8590388   -3.7798586    4.1872604 
H    -2.5947759   -4.1399273    2.6107854 
H    -0.8562566   -4.4518988    2.8811935 
C    -3.5122791   -2.9969336    0.0633555 
H    -4.1570690   -3.4034908   -0.7371133 
H    -3.7543907   -3.5390620    0.9913919 
H    -3.7713350   -1.9400571    0.2082763 
C    -1.8288275   -2.5828460   -1.7588550 
H    -2.4245753   -3.1658423   -2.4850750 
H    -2.1591911   -1.5288392   -1.8107109 
H    -0.7728740   -2.6290358   -2.0803886 
C    -0.1566821   -1.7623726    3.4652603 
H    -0.4325754   -1.6753500    4.5318589 
H     0.7219618   -2.4211011    3.3989481 
H     0.1416715   -0.7595990    3.1091159 
C    -2.5813539   -1.4049429    3.0104684 
H    -3.4969330   -1.6907077    2.4714532 
H    -2.7957218   -1.4695552    4.0928178 
H    -2.3604277   -0.3521954    2.7684668 
