116
Energy =
C    -3.7233777   -0.0601934   -0.3016952 
C    -3.0597748    0.6037980   -1.3634744 
C    -2.2657433   -0.1054570   -2.2924120 
H    -3.1251394    1.6964780   -1.4363895 
Pd   -1.3640134   -0.1991504   -0.1697707 
P     0.8142862    0.3678403   -0.8169606 
P    -0.8328374   -1.1133488    1.9817309 
H    -3.9257796   -1.1304251   -0.4454742 
H    -2.3905427   -1.1987826   -2.3102148 
C    -6.4141671    1.9168339    2.4175446 
C    -5.3954054    2.6504894    1.7859949 
C    -4.5125113    2.0186255    0.9059877 
C    -4.6268862    0.6346868    0.6300051 
C    -5.6669209   -0.0856164    1.2626019 
C    -6.5479569    0.5467156    2.1485755 
H    -7.1016760    2.4129766    3.1100523 
H    -5.2858161    3.7210384    1.9885935 
H    -3.7050763    2.6022223    0.4489722 
H    -5.7927219   -1.1521587    1.0448688 
H    -7.3470339   -0.0311289    2.6244839 
C    -0.5063349    1.3902000   -5.9233025 
C    -0.6506756    0.0113112   -5.7039470 
C    -1.2340100   -0.4523000   -4.5198861 
C    -1.6872413    0.4474031   -3.5258210 
C    -1.5775490    1.8350387   -3.7849256 
C    -0.9829775    2.2985259   -4.9633432 
H    -0.0435364    1.7566830   -6.8451052 
H    -0.3064035   -0.7042830   -6.4576188 
H    -1.3381099   -1.5295303   -4.3502392 
H    -1.9654059    2.5629277   -3.0654799 
H    -0.8999872    3.3759094   -5.1397505 
Fe    3.8302316   -0.7081462    1.0235234 
C     2.0971358    0.2628440    0.4684783 
C     1.9614785   -0.3964518    1.7612765 
C     2.9661838    0.1658258    2.6324549 
C     3.7343454    1.1259381    1.9000355 
C     3.2244892    1.1724809    0.5657971 
C     4.1995203   -2.7253663    1.1083167 
C     4.3812765   -2.2499474   -0.2301049 
C     5.3856273   -1.2244805   -0.2133078 
C     5.8309670   -1.0709935    1.1417759 
C     5.0991985   -1.9991169    1.9588787 
C     1.0232012   -1.5329920    2.1314181 
H     3.1555073   -0.1173498    3.6677177 
H     4.5875533    1.6883093    2.2833536 
H     3.6032941    1.8014821   -0.2397323 
H     3.5063632   -3.5093982    1.4194257 
H     3.8520543   -2.6123078   -1.1104433 
H     5.7511428   -0.6639914   -1.0754864 
H     6.5809942   -0.3609264    1.4946917 
H     5.1995836   -2.1155108    3.0398138 
H     1.1163596   -2.2942622    1.3342912 
C     1.4775506   -2.1599549    3.4662215 
H     2.5298443   -2.4733276    3.3649244 
H     1.4281589   -1.4354628    4.2927371 
H     0.8877763   -3.0366545    3.7514739 
C    -1.7032210   -2.8408254    1.9207459 
C    -1.3032850   -0.1043889    3.5416035 
C    -1.4827921   -3.3651347    0.4802136 
H    -1.9649346   -4.3545660    0.3752131 
H    -1.9250292   -2.6846016   -0.2708535 
H    -0.4119805   -3.4866246    0.2382648 
C    -0.1888903    0.9468550    3.7546676 
H    -0.5419714    1.6855184    4.4971497 
H     0.7418603    0.5060894    4.1404399 
H     0.0494707    1.4895206    2.8245380 
C    -1.1995151   -3.9221131    2.8999692 
H    -1.8665079   -4.7992560    2.8077995 
H    -0.1824174   -4.2660997    2.6530795 
H    -1.2271565   -3.5982853    3.9517377 
C    -3.2125598   -2.6285828    2.1579681 
H    -3.7557950   -3.5479020    1.8721829 
H    -3.4407744   -2.4242461    3.2161001 
H    -3.6050832   -1.7975493    1.5572271 
C    -2.6064466    0.6547087    3.2322650 
H    -2.8728366    1.2867173    4.0990046 
H    -2.4774760    1.3123877    2.3583408 
H    -3.4585000   -0.0110508    3.0297728 
C    -1.4826948   -0.9488404    4.8207849 
H    -0.5835368   -1.5246671    5.0860222 
H    -1.6984696   -0.2636346    5.6613674 
H    -2.3333567   -1.6443821    4.7421657 
H    -0.4136824    2.1776664   -1.6677272 
C     1.0101482    4.4573358   -2.1556030 
C     1.5229872    3.0161860   -1.9591239 
C     0.5323016    2.2097166   -1.0956177 
C     0.2281604    2.9073018    0.2497398 
C    -0.2653993    4.3474176    0.0284098 
C     0.7309137    5.1569233   -0.8163412 
H     0.0775599    4.4270177   -2.7533113 
H     1.7447832    5.0303399   -2.7492265 
H     2.5179624    3.0489032   -1.4795871 
H     1.6439140    2.5352266   -2.9446964 
H    -0.5356090    2.3236993    0.7991337 
H     1.1393786    2.9163486    0.8769637 
H    -1.2460908    4.3182176   -0.4887825 
H    -0.4372668    4.8358910    1.0043882 
H     1.6797028    5.2657608   -0.2547930 
H     0.3478887    6.1782320   -0.9902400 
H     0.8365597    0.0874603   -3.1821074 
C     1.7046130   -2.5623614   -3.6845839 
C     1.2167084   -1.8923902   -2.3869770 
C     1.4693641   -0.3669766   -2.3977576 
C     2.9471390   -0.0423314   -2.6991637 
C     3.3984404   -0.7061112   -4.0140261 
C     3.1716212   -2.2257149   -3.9972240 
H     1.0738047   -2.2115141   -4.5230136 
H     1.5617449   -3.6559937   -3.6154232 
H     1.7369809   -2.3323926   -1.5132514 
H     0.1390122   -2.0868839   -2.2347777 
H     3.1014302    1.0462655   -2.7639148 
H     3.5612093   -0.3961339   -1.8553497 
H     2.8307707   -0.2613187   -4.8551964 
H     4.4641558   -0.4766742   -4.1951197 
H     3.8316568   -2.6882499   -3.2377520 
H     3.4625233   -2.6674781   -4.9668493 
