106
Energy =
C    -2.4801896   -1.5829730   -1.7061722 
C    -1.9396516   -2.3692984   -0.6594051 
C    -1.9765701   -1.9256555    0.6894307 
H    -1.3520873   -3.2599169   -0.9122570 
Pd   -0.8482462   -0.4489398   -0.6154718 
P     0.3092731    0.7703925    1.0263181 
P     0.0309351    0.8900629   -2.2940215 
H    -3.2235033   -0.8205617   -1.4270124 
H    -2.7756329   -1.2173765    0.9520103 
C    -2.6397046   -2.6143979   -5.8761380 
C    -2.0234143   -3.4929111   -4.9703062 
C    -1.9434764   -3.1648880   -3.6131859 
C    -2.4868228   -1.9515657   -3.1302931 
C    -3.0980564   -1.0741236   -4.0563680 
C    -3.1723928   -1.4006106   -5.4137263 
H    -2.7075633   -2.8761989   -6.9370989 
H    -1.6132433   -4.4452586   -5.3222274 
H    -1.4759092   -3.8743857   -2.9232603 
H    -3.5197020   -0.1279735   -3.6993335 
H    -3.6486914   -0.7078265   -6.1143806 
C    -0.3981547   -4.0246350    4.0968270 
C    -1.1957995   -2.8823629    4.2600016 
C    -1.6871891   -2.2030921    3.1411776 
C    -1.3977436   -2.6512487    1.8314513 
C    -0.5844128   -3.8000896    1.6835321 
C    -0.0946591   -4.4792448    2.8037931 
H    -0.0140293   -4.5582238    4.9720843 
H    -1.4344600   -2.5179910    5.2641159 
H    -2.3086256   -1.3113202    3.2776323 
H    -0.3437225   -4.1834824    0.6871383 
H     0.5237911   -5.3723790    2.6674301 
Fe    2.8117260   -0.8671901   -1.7063961 
C     1.8314784    0.8602363   -2.1044544 
C     2.5037207    0.9717714   -0.8204153 
C     3.9034151    0.7424782   -1.0676755 
C     4.0952206    0.5147093   -2.4698226 
C     2.8201093    0.5849880   -3.1181385 
C     2.8749806   -2.5449606   -2.8613023 
C     3.9071029   -2.5788046   -1.8633959 
C     3.2813283   -2.5050986   -0.5737617 
C     1.8603315   -2.4363126   -0.7782063 
C     1.6102289   -2.4544747   -2.1917152 
C     1.9037786    1.5979408    0.4204993 
H     4.6908726    0.7469247   -0.3132130 
H     5.0463267    0.2903357   -2.9561825 
H     2.6218175    0.4338017   -4.1796958 
H     3.0261803   -2.5511996   -3.9421587 
H     4.9811257   -2.6239419   -2.0528949 
H     3.7995585   -2.5043226    0.3868838 
H     1.0986869   -2.3868118    0.0013523 
H     0.6368128   -2.3825198   -2.6795911 
H     1.5222664    2.5801761    0.0789016 
C     2.9215131    1.8381404    1.5465237 
H     3.7178008    2.5132749    1.1888421 
H     2.4430339    2.2982976    2.4262620 
H     3.3824385    0.8938847    1.8782331 
C    -0.4504727    2.6280119   -2.1659313 
C    -1.4947374    3.2478283   -1.5096657 
C    -1.3334352    4.6535786   -1.7223424 
C    -0.1994826    4.7960082   -2.4858048 
H    -2.2703736    2.7517709   -0.9258983 
H    -1.9722807    5.4537093   -1.3487781 
H     0.3286166    5.6568221   -2.8949139 
O     0.3482702    3.5811731   -2.7648059 
C    -0.1967414    0.5758238   -4.0610338 
C    -0.5890856    1.3860494   -5.1081072 
C    -0.4592662    0.6009582   -6.2969935 
C    -0.0072629   -0.6320674   -5.8960702 
H    -0.9073635    2.4248869   -5.0292295 
H    -0.6768594    0.9103686   -7.3192843 
H     0.2262525   -1.5569366   -6.4197411 
O     0.1541620   -0.6648428   -4.5425591 
C    -2.5947488    4.1832837    2.2279447 
C    -3.0606051    2.8550972    2.1247099 
C    -2.1399753    1.8565836    1.7721094 
C    -0.7805361    2.1619294    1.5407437 
C    -0.3430340    3.4884086    1.6777768 
C    -1.2482960    4.5177448    2.0120969 
H    -3.3055020    4.9776149    2.4864466 
H    -2.4847185    0.8224761    1.6661440 
H     0.7061496    3.7532710    1.5139664 
C     1.6671304   -1.2380289    4.9608372 
C     2.1102996   -1.7498382    3.7273972 
C     1.6543642   -1.1344150    2.5497758 
C     0.7845654   -0.0307215    2.6031822 
C     0.3493259    0.4591969    3.8494071 
C     0.7888696   -0.1411661    5.0430240 
H     2.0096690   -1.7150434    5.8871885 
H     1.9975019   -1.4997550    1.5799703 
H    -0.3308693    1.3158122    3.8963739 
C    -4.5123503    2.5243996    2.3903836 
H    -4.7570171    2.6679026    3.4588622 
H    -5.1846074    3.1835837    1.8133851 
H    -4.7453103    1.4790778    2.1281390 
C    -0.7657096    5.9480513    2.1033415 
H    -1.5477764    6.6171354    2.4966998 
H     0.1197450    6.0297197    2.7581143 
H    -0.4677488    6.3197548    1.1051706 
C     3.0646170   -2.9204935    3.6590159 
H     4.1126885   -2.5703834    3.6004362 
H     2.9799715   -3.5626832    4.5511627 
H     2.8680835   -3.5407430    2.7682191 
C     0.2968200    0.3532669    6.3851470 
H    -0.4957604   -0.3122959    6.7775150 
H     1.1088818    0.3664764    7.1320804 
H    -0.1262580    1.3687903    6.3136299 
