112
Energy =
C     2.5509599   -0.0352911   -2.0262148 
C     1.7772161    1.0369628   -2.5378689 
C     1.4591532    2.1694305   -1.7444132 
H     1.3136560    0.9328690   -3.5260222 
Pd    0.6499187    0.2345547   -0.8103352 
P    -1.0236749    1.0190230    0.6176143 
P     0.4926798   -1.9879644   -0.1658323 
H     3.2136199    0.1953924   -1.1795984 
H     2.1201185    2.3798600   -0.8897288 
C     3.8356550   -3.4856195   -4.2482547 
C     4.4234701   -3.1661057   -3.0158920 
C     3.9740618   -2.0555623   -2.2909402 
C     2.9298498   -1.2397449   -2.7843409 
C     2.3247943   -1.5950279   -4.0125310 
C     2.7796013   -2.6990064   -4.7382305 
H     4.1922793   -4.3465825   -4.8229794 
H     5.2424603   -3.7766292   -2.6214899 
H     4.4448636   -1.8038216   -1.3344291 
H     1.4912658   -1.0056969   -4.4070004 
H     2.3034890   -2.9530015   -5.6904951 
C    -0.8246855    5.5941535   -3.0211544 
C    -0.0263044    5.6507699   -1.8695717 
C     0.7239965    4.5337676   -1.4807289 
C     0.6813739    3.3283021   -2.2196637 
C    -0.1104279    3.2981423   -3.3920191 
C    -0.8507648    4.4159910   -3.7871179 
H    -1.4122492    6.4647139   -3.3295481 
H     0.0215531    6.5702567   -1.2767988 
H     1.3648163    4.5955874   -0.5943746 
H    -0.1645323    2.3861040   -3.9953297 
H    -1.4591160    4.3681841   -4.6962754 
Fe   -0.6721751   -0.9376524    3.6700821 
C    -1.4721110   -0.1021266    1.9783706 
C    -1.4933292   -1.5629655    1.9095519 
C    -2.2603455   -2.0273471    3.0422873 
C    -2.7008893   -0.8989994    3.8027195 
C    -2.2140362    0.2820432    3.1629479 
C     0.5140729    0.1145870    4.9622887 
C    -0.2079154   -0.9154409    5.6523534 
C     0.1493147   -2.1764945    5.0659565 
C     1.0931375   -1.9279827    4.0158475 
C     1.3156600   -0.5125553    3.9488689 
C    -1.0762340   -2.4717511    0.7715022 
H    -2.4555426   -3.0687358    3.2981838 
H    -3.2722974   -0.9363616    4.7318505 
H    -2.3741359    1.3015544    3.5119399 
H     0.4595516    1.1835151    5.1764188 
H    -0.9207431   -0.7649107    6.4651938 
H    -0.2456708   -3.1517814    5.3564485 
H     1.5589547   -2.6835065    3.3848184 
H     1.9806957   -0.0031814    3.2530206 
H    -3.3084439    1.8008175    0.6010845 
C    -4.7261525    0.3009755   -1.3022278 
C    -3.3740275    0.0196851   -0.6213074 
C    -2.6869120    1.3298863   -0.1861948 
C    -2.5340106    2.2891477   -1.3810002 
C    -3.8847028    2.5676691   -2.0610530 
C    -4.5727003    1.2626950   -2.4918869 
H    -5.4168985    0.7435379   -0.5581543 
H    -5.1820050   -0.6516838   -1.6272883 
H    -2.7089817   -0.5071131   -1.3350898 
H    -3.5179373   -0.6454594    0.2481595 
H    -2.0587956    3.2385512   -1.0774349 
H    -1.8467642    1.8180375   -2.1090291 
H    -4.5407098    3.1169799   -1.3575859 
H    -3.7253350    3.2325118   -2.9289700 
H    -3.9638939    0.7738519   -3.2790268 
H    -5.5585039    1.4757688   -2.9421641 
H    -0.2064196    3.2003507    0.3742192 
C     1.3274918    3.8844880    2.6032275 
C     0.7482813    2.5212316    2.1879365 
C    -0.5041493    2.6782499    1.3031282 
C    -1.5730277    3.5596594    1.9837927 
C    -0.9696442    4.9296002    2.3506185 
C     0.2599204    4.7743945    3.2602163 
H     1.7305769    4.3988980    1.7087497 
H     2.1812229    3.7321789    3.2881269 
H     0.4658986    1.9411525    3.0826497 
H     1.5110223    1.9222573    1.6531244 
H    -2.4445236    3.6993505    1.3211744 
H    -1.9413176    3.0761036    2.9060395 
H    -0.6797119    5.4569676    1.4203867 
H    -1.7385708    5.5527478    2.8410648 
H    -0.0543313    4.3182093    4.2202320 
H     0.6847924    5.7637764    3.5061891 
H    -1.8181554   -2.3214830   -0.0382374 
C    -1.1051134   -3.9609666    1.1534049 
H    -2.1359144   -4.2657061    1.3999389 
H    -0.7707677   -4.5922671    0.3134807 
H    -0.4687933   -4.1552156    2.0325316 
C    -0.1715870   -4.5696733   -3.9848969 
C    -0.9968059   -3.4751974   -3.6820210 
C    -0.7542988   -2.7133378   -2.5330403 
C     0.3083192   -3.0442039   -1.6610115 
C     1.1511196   -4.1217633   -1.9903882 
C     0.9054884   -4.8803666   -3.1444863 
H    -0.3593846   -5.1677263   -4.8824675 
H    -1.8283285   -3.2109450   -4.3435493 
H    -1.3907262   -1.8472617   -2.3147819 
H     2.0171607   -4.3611647   -1.3696005 
H     1.5733435   -5.7119759   -3.3902676 
C     4.2911841   -3.2963272    2.1899267 
C     3.3651463   -4.2769364    1.8016948 
C     2.2093614   -3.9206575    1.0924829 
C     1.9670551   -2.5688402    0.7578236 
C     2.9043442   -1.5937054    1.1577491 
C     4.0571940   -1.9513951    1.8685209 
H     5.1904703   -3.5804724    2.7457327 
H     3.5408898   -5.3278674    2.0532542 
H     1.5038340   -4.7024838    0.8036167 
H     2.7097452   -0.5423781    0.9173729 
H     4.7694245   -1.1790750    2.1764251 
