124
Energy =
C     2.9455308   -0.8997848   -1.6226175 
C     2.8621289    0.5076424   -1.8550097 
C     3.0769658    1.4197093   -0.8028757 
H     2.5227918    0.8680521   -2.8347800 
Pd    1.2738591   -0.0607431   -0.4266024 
P    -0.3504701    1.4189317    0.5010609 
P     0.0723956   -2.0285805    0.0106458 
H     3.6487700   -1.2168937   -0.8396466 
H     3.5591871    1.0209324    0.1028196 
C     2.2497329   -3.8314634   -4.7062663 
C     1.3646711   -2.7502259   -4.5556140 
C     1.5898249   -1.7895095   -3.5635593 
C     2.6999227   -1.8922529   -2.6949521 
C     3.5877434   -2.9767330   -2.8654700 
C     3.3661469   -3.9358045   -3.8634419 
H     2.0700778   -4.5860874   -5.4786953 
H     0.4908558   -2.6608456   -5.2099799 
H     0.8812368   -0.9627956   -3.4345836 
H     4.4599231   -3.0668048   -2.2084576 
H     4.0654562   -4.7704119   -3.9787243 
C     3.1556000    5.7181983   -0.9930861 
C     3.4565973    5.0426445    0.1995851 
C     3.4375939    3.6440456    0.2351356 
C     3.1019829    2.8856151   -0.9107755 
C     2.8423943    3.5823915   -2.1160196 
C     2.8634863    4.9805096   -2.1527955 
H     3.1702570    6.8123205   -1.0263959 
H     3.7132449    5.6064412    1.1025063 
H     3.6863406    3.1203963    1.1638945 
H     2.6366941    3.0301295   -3.0381025 
H     2.6600252    5.4995821   -3.0951868 
Fe   -2.7735133    0.2884524    3.1170612 
C    -1.7777835    0.6170051    1.3260962 
C    -1.8954217   -0.8064935    1.6153522 
C    -3.2983233   -1.1086845    1.7460434 
C    -4.0527803    0.0934629    1.5517104 
C    -3.1253697    1.1576463    1.3185940 
C    -2.7698822    1.7028947    4.6140772 
C    -4.0279074    1.0212641    4.5553664 
C    -3.7841930   -0.3780880    4.7600736 
C    -2.3748760   -0.5607037    4.9478245 
C    -1.7455194    0.7240927    4.8507933 
C    -0.7997528   -1.8435085    1.6766562 
H    -3.7105996   -2.0891698    1.9938313 
H    -5.1376363    0.1907729    1.6236056 
H    -3.3889749    2.2019154    1.1471201 
H    -2.6252649    2.7787351    4.5106007 
H    -4.9989622    1.4822735    4.3656222 
H    -4.5373569   -1.1682184    4.7513471 
H    -1.8782291   -1.5146134    5.1329879 
H    -0.6786245    0.9251590    4.9555160 
H    -2.0710295    1.5879180   -1.1492588 
C    -1.0432720    2.7019446   -3.4861030 
C    -0.3073994    2.2124489   -2.2285873 
C    -1.2073554    2.2574280   -0.9778222 
C    -1.7446745    3.6904013   -0.7768619 
C    -2.4842126    4.1838506   -2.0370036 
C    -1.5935281    4.1218217   -3.2861156 
H    -1.8773250    2.0078801   -3.7122941 
H    -0.3581192    2.6665420   -4.3529688 
H     0.5743401    2.8509532   -2.0491269 
H     0.0701560    1.1835019   -2.3815568 
H    -2.4308182    3.7398642    0.0842338 
H    -0.8995796    4.3712021   -0.5591651 
H    -3.3823577    3.5546183   -2.1945861 
H    -2.8455355    5.2139588   -1.8671083 
H    -0.7466268    4.8262892   -3.1665134 
H    -2.1570712    4.4494057   -4.1777920 
H     0.9790453    3.3545097    0.9782657 
C     1.9400687    3.0006814    3.6493546 
C     1.2925601    2.0141366    2.6617124 
C     0.3645811    2.7181650    1.6447614 
C    -0.6793026    3.5804902    2.3824528 
C    -0.0185054    4.5640579    3.3663751 
C     0.8834410    3.8441127    4.3778821 
H     2.6203823    3.6785093    3.0989041 
H     2.5637027    2.4429760    4.3713130 
H     0.6862690    1.2823465    3.2276372 
H     2.0671034    1.4342628    2.1256225 
H    -1.2993507    4.1445945    1.6719498 
H    -1.3543949    2.8959935    2.9239254 
H     0.5842566    5.2977384    2.7953878 
H    -0.8042079    5.1411636    3.8872997 
H     0.2642237    3.1879007    5.0205253 
H     1.3705259    4.5724809    5.0502980 
H    -0.6391876   -2.8689696   -2.0786072 
C    -2.8547034   -1.5555597   -3.0060197 
C    -1.9341896   -1.1740178   -1.8335525 
C    -1.2399127   -2.4252389   -1.2595787 
C    -2.2914942   -3.4607065   -0.8000785 
C    -3.2088524   -3.8486066   -1.9754757 
C    -3.8901129   -2.6116148   -2.5848354 
H    -2.2355633   -1.9548437   -3.8341799 
H    -3.3579399   -0.6510629   -3.3938824 
H    -2.5293043   -0.6854233   -1.0399340 
H    -1.1731958   -0.4471777   -2.1647610 
H    -1.8123904   -4.3601379   -0.3746576 
H    -2.9048734   -3.0133733    0.0018873 
H    -2.6057872   -4.3603058   -2.7513796 
H    -3.9654607   -4.5764485   -1.6315404 
H    -4.5736307   -2.1679235   -1.8339446 
H    -4.5143492   -2.9040193   -3.4478566 
H     0.4212972   -4.1545331    1.0857615 
C     3.1060646   -4.7871079    1.1419382 
C     2.4439608   -3.4510626    0.7621504 
C     0.9943525   -3.6663015    0.2702862 
C     0.9919737   -4.6235116   -0.9447313 
C     1.6772657   -5.9580112   -0.5893561 
C     3.1012281   -5.7574853   -0.0493813 
H     2.5603335   -5.2392792    1.9937407 
H     4.1385677   -4.6031401    1.4899456 
H     3.0189721   -2.9905850   -0.0576599 
H     2.4801387   -2.7443953    1.6083038 
H    -0.0346122   -4.8342261   -1.2840631 
H     1.5192658   -4.1491168   -1.7893741 
H     1.0681646   -6.4838539    0.1726061 
H     1.6905341   -6.6058281   -1.4843241 
H     3.7402289   -5.3456427   -0.8547088 
H     3.5412366   -6.7281936    0.2406866 
H    -1.2883139   -2.8162415    1.8655203 
C     0.2603228   -1.6021512    2.7686162 
H    -0.2404669   -1.3190280    3.7049848 
H     0.8599689   -2.5077671    2.9535488 
H     0.9444782   -0.7840567    2.4865802 
