134
Energy =
C     2.8509647    1.6082832   -1.1221156 
C     2.1075422    1.1351648   -2.2127903 
C     0.8057294    1.6564249   -2.5109468 
H     2.5086305    0.3269860   -2.8368566 
Pd    0.6884983    0.5248364   -0.6079527 
P    -1.6288687    0.7348487   -0.4300509 
P     1.2341504   -0.6681885    1.4355144 
H     2.4776296    2.5094487   -0.6139887 
H     0.6053731    2.6880016   -2.1843770 
C     6.9291741    0.6872381   -0.1463291 
C     6.2453950    1.7145174    0.5219406 
C     4.9154083    1.9978456    0.1935108 
C     4.2337007    1.2505973   -0.7991066 
C     4.9438625    0.2267348   -1.4728405 
C     6.2756344   -0.0465635   -1.1517119 
H     7.9713452    0.4656400    0.1048163 
H     6.7535725    2.3033137    1.2921918 
H     4.3943191    2.8190604    0.6969539 
H     4.4499558   -0.3633041   -2.2509293 
H     6.8107645   -0.8385970   -1.6851913 
C    -1.3608328    0.4962551   -6.0461498 
C    -0.6174102   -0.4617696   -5.3370293 
C     0.0885854   -0.0963929   -4.1857212 
C     0.0584316    1.2356736   -3.7134138 
C    -0.6847170    2.1911675   -4.4407935 
C    -1.3843740    1.8250118   -5.5970547 
H    -1.9248886    0.2071182   -6.9380646 
H    -0.5956589   -1.5014826   -5.6806257 
H     0.6445887   -0.8559240   -3.6261362 
H    -0.7086229    3.2316768   -4.1030029 
H    -1.9550355    2.5826817   -6.1434658 
Fe   -2.0887895   -3.8143687   -1.2312793 
C    -1.5213211   -1.9619012   -0.6960999 
C    -0.6554792   -2.9317703   -0.0447988 
C    -0.0613173   -3.7496975   -1.0752962 
H     0.6154513   -4.5855196   -0.8917605 
C    -0.4871613   -3.2609882   -2.3501643 
H    -0.2150418   -3.6716641   -3.3242234 
C    -1.3796100   -2.1633189   -2.1252645 
H    -1.8778128   -1.6127406   -2.9207254 
C    -4.1219268   -3.8686937   -1.0364499 
H    -4.7755729   -3.0293786   -0.7889466 
C    -3.5078661   -4.7635019   -0.0974005 
H    -3.6201688   -4.7257167    0.9878929 
C    -2.7307511   -5.7186097   -0.8385647 
H    -2.1401145   -6.5362060   -0.4207324 
C    -2.8682760   -5.4127221   -2.2344614 
H    -2.3865492   -5.9434884   -3.0574879 
C    -3.7280786   -4.2691124   -2.3575107 
H    -4.0115591   -3.7715776   -3.2874870 
C    -0.3520168   -3.1066335    1.3993622 
C     0.3665917   -2.1483118    2.1671051 
C     0.5809845   -2.4190541    3.5400939 
H     1.1215044   -1.7030247    4.1627869 
C     0.1370963   -3.6012554    4.1427580 
H     0.3203403   -3.7677906    5.2090011 
C    -0.5178563   -4.5666732    3.3689692 
H    -0.8523585   -5.5079980    3.8166877 
C    -0.7546954   -4.3104027    2.0162002 
H    -1.2762949   -5.0434629    1.3968104 
C    -1.9048003    2.0548975    0.8309266 
C    -0.9460694    3.0860885    0.8125882 
H    -0.1034243    3.0265870    0.1155195 
C    -1.0408941    4.1739887    1.6869017 
C    -2.0643468    4.2200369    2.6419420 
H    -2.1217940    5.0459671    3.3555583 
C    -3.0091047    3.1832269    2.6769715 
C    -2.9626820    2.1272947    1.7533132 
H    -3.7441765    1.3668083    1.7843827 
C    -2.6689137    1.4136064   -1.8075889 
C    -2.7552955    2.8049956   -2.0117004 
H    -2.2439633    3.5073609   -1.3480451 
C    -3.5164674    3.3235803   -3.0686039 
C    -4.1902142    2.4750641   -3.9557877 
H    -4.7648007    2.8864016   -4.7897156 
C    -4.0923371    1.0911022   -3.7654920 
C    -3.3549543    0.5674041   -2.6978834 
H    -3.3314328   -0.5158553   -2.5820784 
C    -2.4328065   -0.9331029   -0.0495563 
H    -3.3807872   -0.9307780   -0.6111537 
C    -2.7677758   -1.1866393    1.4301051 
H    -2.9341025   -2.2669341    1.5701296 
H    -1.9616538   -0.8804321    2.1136757 
H    -3.6924611   -0.6632164    1.7174048 
C    -3.5039553    4.8158774   -3.3201303 
F    -4.6290347    5.2364160   -3.9301006 
F    -3.3548503    5.5169799   -2.1735794 
F    -2.4575458    5.1478736   -4.1290547 
C    -4.7903481    0.1428614   -4.7177733 
F    -4.2089761   -1.0883219   -4.7017362 
F    -6.0911507   -0.0260729   -4.3959048 
F    -4.7406088    0.5998504   -5.9891942 
C    -0.0327931    5.2954501    1.5559304 
F     0.0525494    6.0361530    2.6779025 
F     1.2128424    4.8024298    1.2905241 
F    -0.3509428    6.1186918    0.5324851 
C    -4.0453378    3.1606431    3.7825615 
F    -4.4182738    4.4036038    4.1468624 
F    -5.1521556    2.4763431    3.4166266 
F    -3.5385261    2.5481113    4.8850342 
H     1.9968895   -0.0875168    3.6591235 
C     0.3019732    1.7414683    4.8099477 
C     0.0674022    0.8766381    3.5573169 
C     1.4097636    0.4781532    2.9117672 
C     2.2303002    1.7280981    2.5478035 
C     2.4730039    2.6048441    3.7907464 
C     1.1583103    2.9792302    4.4952966 
H     0.8063020    1.1287552    5.5830332 
H    -0.6737737    2.0446703    5.2301140 
H    -0.5263122    1.4470182    2.8253845 
H    -0.5255296   -0.0158321    3.8226986 
H     3.1948536    1.4323451    2.1009935 
H     1.6825500    2.3104277    1.7833110 
H     3.1255327    2.0531118    4.4956786 
H     3.0219538    3.5177468    3.4973277 
H     0.5819438    3.6604530    3.8439439 
H     1.3703405    3.5427656    5.4211292 
H     3.5176295   -0.5394360    0.7072285 
C     4.2721700   -3.1333620   -0.1596507 
C     2.8886526   -2.5359070    0.1538608 
C     2.9668373   -1.3769903    1.1723543 
C     3.7208200   -1.8021520    2.4463180 
C     5.1160631   -2.3551425    2.0928700 
C     5.0156989   -3.5412005    1.1213618 
H     4.8784913   -2.3882365   -0.7041989 
H     4.1503159   -4.0008437   -0.8336636 
H     2.2481026   -3.3320469    0.5769698 
H     2.3931136   -2.1899219   -0.7736669 
H     3.8284565   -0.9480459    3.1384428 
H     3.1466537   -2.5858249    2.9756199 
H     5.7188921   -1.5485060    1.6318828 
H     5.6364865   -2.6550533    3.0201407 
H     4.4737272   -4.3720272    1.6149635 
H     6.0225525   -3.9227436    0.8739874 
