112
Energy =
C     1.0362299    0.4305688   -3.0228365 
C     0.5021237    1.7476362   -2.9547173 
C     1.0630996    2.7331473   -2.1115084 
H    -0.4401898    1.9673748   -3.4714483 
Pd    0.3548939    0.8962312   -0.9170066 
P    -0.2186705    1.9090019    1.1040213 
P     0.3270390   -1.2924789   -0.0335456 
H     2.1066422    0.3235731   -2.7977444 
H     2.0872667    2.5562833   -1.7475866 
C    -0.5155058   -2.6480642   -5.6088341 
C    -1.3612133   -1.6176157   -5.1645282 
C    -0.8767706   -0.6257640   -4.3056616 
C     0.4742561   -0.6267467   -3.8864961 
C     1.3144842   -1.6667518   -4.3475370 
C     0.8242538   -2.6693094   -5.1939239 
H    -0.8995146   -3.4263144   -6.2760096 
H    -2.4083469   -1.5933535   -5.4833150 
H    -1.5592689    0.1536871   -3.9501990 
H     2.3681709   -1.6766426   -4.0502067 
H     1.4947470   -3.4621656   -5.5413918 
C    -0.1710893    6.8465742   -1.8653826 
C     0.7543784    6.3217956   -0.9501808 
C     1.1447736    4.9825932   -1.0385988 
C     0.6094887    4.1319261   -2.0334279 
C    -0.3220841    4.6760999   -2.9482468 
C    -0.7024981    6.0196034   -2.8673395 
H    -0.4726922    7.8969678   -1.8016721 
H     1.1710868    6.9583420   -0.1634657 
H     1.8636228    4.5807853   -0.3168002 
H    -0.7339266    4.0544377   -3.7496016 
H    -1.4130006    6.4262362   -3.5944902 
Fe   -1.8441958   -2.2236788    2.8371668 
C    -0.3056180   -1.4595629    1.6805882 
C    -0.9404954   -0.4162403    2.4768807 
C    -0.8281933   -0.7942752    3.8608473 
C    -0.1490328   -2.0509004    3.9450734 
C     0.1544636   -2.4741035    2.6136192 
C    -2.6479592   -4.0051773    3.4402579 
C    -3.1915233   -2.9172874    4.2023694 
C    -3.8346785   -2.0134986    3.2925769 
C    -3.6893233   -2.5430765    1.9691857 
C    -2.9544554   -3.7732845    2.0612107 
C    -1.5307040    0.8874971    1.9994098 
H    -1.2362591   -0.2296324    4.7022876 
H     0.0521515   -2.6140335    4.8582645 
H     0.6627253   -3.4024969    2.3484436 
H    -2.0785243   -4.8465988    3.8394317 
H    -3.1042031   -2.7848757    5.2825569 
H    -4.3376287   -1.0841552    3.5667892 
H    -4.0822523   -2.0987805    1.0539592 
H    -2.6859525   -4.4227928    1.2289071 
H     2.0003936   -2.8518357    0.7426032 
C     4.2906771   -1.4142748    1.3975154 
C     2.8700513   -0.9024527    1.1081255 
C     2.0926087   -1.8857836    0.2112586 
C     2.8548522   -2.1365803   -1.1027167 
C     4.2745040   -2.6610565   -0.8133962 
C     5.0577705   -1.6995646    0.0958200 
H     4.2268852   -2.3410587    2.0010944 
H     4.8305759   -0.6727063    2.0138193 
H     2.9314208    0.0682397    0.5797648 
H     2.3253115   -0.7142154    2.0499881 
H     2.3114398   -2.8471547   -1.7494776 
H     2.9279276   -1.1848246   -1.6605090 
H     4.1998926   -3.6526958   -0.3253740 
H     4.8124269   -2.8186690   -1.7656329 
H     5.2235533   -0.7455394   -0.4439332 
H     6.0575226   -2.1127394    0.3188754 
H     0.0271965   -2.4433853   -2.0919763 
C    -2.6698803   -3.2604513   -2.2266107 
C    -1.9743125   -2.2445310   -1.3036386 
C    -0.4804602   -2.5742269   -1.1167894 
C    -0.2750213   -4.0241198   -0.6340432 
C    -0.9564872   -5.0183679   -1.5942230 
C    -2.4524359   -4.7099476   -1.7654416 
H    -2.2623426   -3.1442471   -3.2473028 
H    -3.7491631   -3.0295040   -2.2849492 
H    -2.4514806   -2.2415538   -0.3076191 
H    -2.0773942   -1.2234094   -1.7160400 
H     0.8006809   -4.2620640   -0.5581459 
H    -0.7021692   -4.1253767    0.3811031 
H    -0.4570151   -4.9603621   -2.5812331 
H    -0.8120108   -6.0494625   -1.2241122 
H    -2.9776775   -4.8783302   -0.8051320 
H    -2.9051534   -5.4100424   -2.4899849 
H    -1.8205763    1.4810935    2.8849260 
C    -2.7599234    0.7417947    1.0855243 
H    -3.5494034    0.2047955    1.6316668 
H    -3.1555023    1.7248978    0.7828125 
H    -2.5124693    0.1634469    0.1799710 
C     3.4269230    2.4811105    3.9381070 
C     2.1741551    2.1799717    4.4924463 
C     1.0584898    2.0001992    3.6620605 
C     1.1890819    2.1080346    2.2626430 
C     2.4518258    2.4190224    1.7163623 
C     3.5630460    2.6080190    2.5471029 
H     4.2958919    2.6192046    4.5896237 
H     2.0617321    2.0867978    5.5775661 
H     0.0882398    1.7799051    4.1137572 
H     2.5643556    2.4964596    0.6297812 
H     4.5373106    2.8455908    2.1078114 
C    -2.3271385    6.0463103    0.9176578 
C    -2.5317818    5.0937280   -0.0919393 
C    -1.8626491    3.8654088   -0.0421704 
C    -0.9960698    3.5706095    1.0314042 
C    -0.7819326    4.5374314    2.0347541 
C    -1.4485805    5.7689054    1.9751862 
H    -2.8438862    7.0104610    0.8728993 
H    -3.1979049    5.3153280   -0.9312849 
H    -1.9967171    3.1345605   -0.8480217 
H    -0.0915249    4.3333971    2.8593395 
H    -1.2778058    6.5151060    2.7581828 
