132
Energy =
C     1.3121624   -0.9808027   -3.2311523 
C     1.5963377    0.3781243   -2.9308549 
C     2.4774844    0.7550682   -1.8874513 
H     1.0156264    1.1604111   -3.4371520 
Pd    0.7536613   -0.4769672   -1.0802701 
P     0.4957177    0.6298382    0.9449000 
P    -0.8049889   -2.1595236   -0.5203765 
H     2.0866777   -1.7251146   -2.9930366 
H     3.2398017    0.0219781   -1.5818146 
C    -1.4629458   -2.1920906   -6.3012928 
C    -1.6484525   -0.9700172   -5.6326303 
C    -0.7545923   -0.5684971   -4.6354679 
C     0.3515676   -1.3757727   -4.2811980 
C     0.5311558   -2.5950472   -4.9732512 
C    -0.3661762   -3.0010098   -5.9696773 
H    -2.1670752   -2.5076610   -7.0777755 
H    -2.5025802   -0.3321740   -5.8835008 
H    -0.9324214    0.3720897   -4.1037071 
H     1.3944451   -3.2244650   -4.7318094 
H    -0.2039213   -3.9493129   -6.4924879 
C     3.4622713    4.8090395   -0.8205695 
C     4.3444739    3.7557212   -0.5425513 
C     4.0021091    2.4419446   -0.8812444 
C     2.7770760    2.1520265   -1.5210991 
C     1.8982931    3.2255331   -1.7965524 
C     2.2350057    4.5363466   -1.4465269 
H     3.7283994    5.8373217   -0.5544265 
H     5.3056850    3.9564539   -0.0613011 
H     4.6964124    1.6251432   -0.6579741 
H     0.9358647    3.0385293   -2.2812757 
H     1.5371244    5.3513297   -1.6651629 
Fe    0.7395862   -1.5575321    3.8092935 
C    -0.0545913   -0.3771221    2.3525447 
C    -0.6231292   -1.7198306    2.3200840 
C    -1.2477688   -1.9365622    3.6041163 
C    -1.0407198   -0.7834618    4.4285969 
C    -0.2898630    0.1712877    3.6746907 
C     1.8518046   -3.2750553    3.8242943 
C     2.6376281   -2.1697826    3.3600537 
C     2.6564525   -1.1685131    4.3943330 
C     1.8854577   -1.6632243    5.4970107 
C     1.3830269   -2.9608814    5.1444654 
C    -0.9117929    1.7824755    0.6314262 
C    -1.2408736    2.0573749   -0.7093789 
C    -2.3594703    2.8285340   -1.0581886 
C    -3.1652273    3.3315167   -0.0118026 
C    -2.8694290    3.0711675    1.3477017 
C    -1.7354536    2.2998779    1.6503831 
C     1.8547735    1.6404211    1.6363809 
C     3.0892307    1.0076251    1.8722639 
C     4.1458029    1.6837450    2.4981333 
C     3.9438068    3.0348855    2.8694489 
C     2.7298456    3.7078738    2.6038753 
C     1.6916472    2.9916765    1.9814732 
C    -0.5012319   -2.7810841    1.2321365 
H    -1.7543150   -2.8464931    3.9260204 
H    -1.3590395   -0.6777159    5.4672626 
H     0.0643034    1.1437779    4.0228547 
H     1.6358819   -4.1896435    3.2678707 
H     3.1298058   -2.1059080    2.3878818 
H     3.1504062   -0.1979698    4.3456123 
H     1.6865956   -1.1307941    6.4288550 
H     0.7369696   -3.5880071    5.7617187 
H    -0.6354746    1.6071433   -1.5059023 
H    -1.5273193    2.0711954    2.6988710 
H     3.2263271   -0.0361517    1.5700834 
H     0.7429317    3.4993433    1.7786724 
H     0.5692554   -3.0478562    1.1686013 
H    -0.3452053   -3.1321039   -2.6210367 
H    -3.1225686   -2.7894556   -0.6335703 
C    -4.4055975   -0.8750601   -2.2542560 
C    -2.9072827   -1.1553193   -2.0484801 
C    -2.6314352   -1.7973977   -0.6723396 
C    -3.2068523   -0.9357409    0.4706736 
C    -4.7084579   -0.6707719    0.2526496 
C    -4.9805716   -0.0206175   -1.1131039 
H    -4.9509079   -1.8381108   -2.3056705 
H    -4.5548450   -0.3764039   -3.2294857 
H    -2.3428042   -0.2051545   -2.1003977 
H    -2.5224561   -1.7935175   -2.8632505 
H    -3.0507342   -1.4277525    1.4453865 
H    -2.6709582    0.0272316    0.5117525 
H    -5.2626599   -1.6280246    0.3215708 
H    -5.0851419   -0.0267784    1.0676751 
H    -4.5152688    0.9831026   -1.1328221 
H    -6.0653766    0.1304416   -1.2563431 
C    -1.2248665   -5.6948218   -2.9236970 
C    -1.6389391   -4.6526124   -1.8659024 
C    -0.4960521   -3.6354401   -1.6486472 
C     0.8376403   -4.3301023   -1.2849670 
C     1.2199775   -5.3977094   -2.3264371 
C     0.0808622   -6.4076607   -2.5376932 
H    -1.0918765   -5.1835973   -3.8969598 
H    -2.0415476   -6.4266746   -3.0572347 
H    -1.8934879   -5.1710840   -0.9242951 
H    -2.5534205   -4.1345619   -2.2028020 
H     1.6419262   -3.5739947   -1.1924944 
H     0.7487796   -4.8206719   -0.2970465 
H     1.4496201   -4.9023469   -3.2883377 
H     2.1436910   -5.9124764   -2.0064292 
H    -0.0774745   -6.9817797   -1.6030545 
H     0.3615759   -7.1418108   -3.3138180 
C    -1.2946296   -4.0497997    1.5899276 
H    -2.3787257   -3.8527745    1.6419617 
H    -1.1238599   -4.8512117    0.8574479 
H    -0.9662422   -4.4293222    2.5727529 
C    -2.7259248    3.0700450   -2.5036779 
H    -2.3487994    2.2565150   -3.1461835 
H    -3.8197154    3.1381662   -2.6211515 
H    -2.2919364    4.0161429   -2.8783494 
C    -3.7889361    3.5870541    2.4291134 
H    -3.6690640    4.6772315    2.5706809 
H    -4.8430344    3.4144778    2.1543658 
H    -3.5812451    3.0976203    3.3941147 
O    -4.3295164    4.0006802   -0.3142379 
C    -4.2096335    5.4141428   -0.5318791 
H    -5.2249423    5.7815926   -0.7419025 
H    -3.8108626    5.9239818    0.3653939 
H    -3.5524504    5.6359126   -1.3939531 
C     5.4679951    1.0075800    2.7746187 
H     6.2231157    1.2838816    2.0140643 
H     5.8670721    1.3193953    3.7538877 
H     5.3676833   -0.0900705    2.7589769 
C     2.5566533    5.1574321    2.9880546 
H     1.4941461    5.4019836    3.1499791 
H     3.1251247    5.3895083    3.9032048 
H     2.9288640    5.8219716    2.1850615 
O     4.9347708    3.6818726    3.5771424 
C     5.8800807    4.4452157    2.8200150 
H     6.5582995    4.9103729    3.5507707 
H     6.4669547    3.7986781    2.1395715 
H     5.3814346    5.2357269    2.2280447 
