134
Energy =
C     2.8823563    1.3036040   -1.0120716 
C     1.8655351    1.9413471   -1.7902771 
C     1.0003608    2.9054529   -1.2385498 
H     1.7073934    1.6103141   -2.8242145 
Pd    0.8478782    0.7794467   -0.2020948 
P    -1.4865186    0.6927045   -0.2360059 
P     1.5245705   -0.7027528    1.5293819 
H     3.2979557    1.8797168   -0.1752079 
H     1.2688627    3.3242831   -0.2566831 
C     5.7106667   -1.2869971   -2.9635548 
C     6.1231667   -0.4243932   -1.9365154 
C     5.1852367    0.3786116   -1.2751084 
C     3.8188768    0.3466365   -1.6382760 
C     3.4143103   -0.5483332   -2.6565362 
C     4.3511376   -1.3528726   -3.3129291 
H     6.4425281   -1.9136944   -3.4829550 
H     7.1793508   -0.3726608   -1.6530687 
H     5.5157065    1.0649286   -0.4868551 
H     2.3582333   -0.6187106   -2.9376098 
H     4.0191164   -2.0356424   -4.1016426 
C    -2.0195729    5.1431204   -3.3216046 
C    -1.8317499    5.3072991   -1.9408503 
C    -0.8332993    4.5844894   -1.2798545 
C    -0.0204252    3.6581448   -1.9768985 
C    -0.2014983    3.5271387   -3.3753122 
C    -1.1868170    4.2656775   -4.0363045 
H    -2.8040316    5.6994484   -3.8435913 
H    -2.4568090    6.0090172   -1.3792341 
H    -0.6701798    4.7473169   -0.2111567 
H     0.4341093    2.8526304   -3.9548492 
H    -1.3162169    4.1523505   -5.1167811 
Fe   -2.0826803   -3.9674512   -0.8132989 
C    -1.5003944   -2.0565893   -0.4892642 
C    -0.5510862   -2.9594933    0.1454006 
C    -0.0500141   -3.8439340   -0.8821373 
H     0.6645133   -4.6509744   -0.7124875 
C    -0.6270510   -3.4721024   -2.1390308 
H    -0.4455971   -3.9535207   -3.1011891 
C    -1.5283781   -2.3844593   -1.9009780 
H    -2.1737456   -1.9207156   -2.6471651 
C    -4.0972129   -4.0375934   -0.4808666 
H    -4.7493427   -3.1835801   -0.2857326 
C    -3.4063638   -4.8140685    0.5085205 
H    -3.4515689   -4.6599828    1.5884190 
C    -2.6551170   -5.8324095   -0.1724760 
H    -2.0251495   -6.5938761    0.2916887 
C    -2.8836174   -5.6842219   -1.5807814 
H    -2.4415041   -6.2944484   -2.3703983 
C    -3.7765787   -4.5768728   -1.7716606 
H    -4.1280021   -4.1958074   -2.7323222 
C    -0.1581763   -3.0775502    1.5815565 
C     0.5972954   -2.1130746    2.3084531 
C     0.8427590   -2.3482957    3.6834907 
H     1.4069727   -1.6208781    4.2704859 
C     0.4078494   -3.5074046    4.3335176 
H     0.6154660   -3.6434476    5.3995692 
C    -0.2634013   -4.4906182    3.5990779 
H    -0.5859000   -5.4226613    4.0742163 
C    -0.5369618   -4.2638067    2.2484771 
H    -1.0747482   -5.0119746    1.6651070 
C    -2.4969640    1.9317031    0.6664380 
C    -1.8384584    2.9414231    1.3864919 
H    -0.7454488    2.9718847    1.3956568 
C    -2.5700244    3.9159465    2.0783629 
C    -3.9718718    3.9011378    2.0540810 
H    -4.5451461    4.6717490    2.5754266 
C    -4.6317600    2.8880723    1.3452061 
C    -3.9039455    1.9017274    0.6642013 
H    -4.4499570    1.1200387    0.1263610 
C    -1.9068501    0.9497476   -2.0179218 
C    -3.0100910    1.6725221   -2.5054341 
H    -3.6919003    2.1959058   -1.8313548 
C    -3.2264949    1.7705105   -3.8874351 
C    -2.3599589    1.1512347   -4.8025008 
H    -2.5297987    1.2409995   -5.8786971 
C    -1.2482709    0.4557447   -4.3151467 
C    -1.0188007    0.3635627   -2.9365466 
H    -0.1392513   -0.1761868   -2.5691641 
C    -2.3328190   -0.9657654    0.1359642 
H    -3.2873141   -0.9228312   -0.4192996 
C    -2.6218547   -1.1240855    1.6376932 
H    -2.9108341   -2.1697400    1.8344010 
H    -1.7389343   -0.9000689    2.2563225 
H    -3.4435576   -0.4638017    1.9569243 
C    -4.4019879    2.5671194   -4.4157867 
F    -4.0302106    3.3418434   -5.4658838 
F    -5.3938468    1.7574556   -4.8477130 
F    -4.9201061    3.3836498   -3.4691370 
C    -0.2135661   -0.1377902   -5.2406693 
F     0.9286943    0.6164055   -5.2247047 
F     0.1522473   -1.3833114   -4.8407737 
F    -0.6320652   -0.2107434   -6.5148797 
C    -1.8281760    4.9643650    2.8783297 
F    -2.5512890    6.0868659    3.0408481 
F    -1.5001001    4.5035584    4.1107872 
F    -0.6574895    5.3065165    2.2659397 
C    -6.1452205    2.8168414    1.3084082 
F    -6.7183017    3.9420253    1.7769179 
F    -6.5806869    2.6177423    0.0396206 
F    -6.5952905    1.7775133    2.0508750 
H     2.3360324   -0.0866624    3.7465489 
C     0.7093522    1.9500712    4.7352315 
C     0.4708995    0.9987947    3.5488983 
C     1.8032783    0.4845017    2.9640108 
C     2.7172803    1.6640154    2.5709269 
C     2.9719085    2.5854235    3.7770412 
C     1.6493856    3.1073558    4.3602179 
H     1.1502726    1.3750503    5.5730826 
H    -0.2584790    2.3422718    5.0925062 
H    -0.0805611    1.5297490    2.7519593 
H    -0.1700996    0.1554900    3.8607137 
H     3.6734646    1.2963320    2.1554045 
H     2.2184609    2.2478370    1.7706986 
H     3.5269435    2.0229076    4.5531597 
H     3.6207392    3.4256380    3.4710364 
H     1.1531854    3.7553975    3.6123930 
H     1.8415277    3.7427545    5.2425985 
H     3.7616090   -0.7269486    0.6829799 
C     4.3583277   -3.3245031   -0.1431131 
C     3.0067769   -2.6993802    0.2396251 
C     3.1899235   -1.5123801    1.2093589 
C     3.9813791   -1.9374948    2.4616916 
C     5.3378309   -2.5495895    2.0567356 
C     5.1558712   -3.7402823    1.1023049 
H     4.9419164   -2.5915093   -0.7271206 
H     4.1867005   -4.1924667   -0.8052998 
H     2.3827687   -3.4659827    0.7363550 
H     2.4603520   -2.3708078   -0.6627125 
H     4.1507877   -1.0754372    3.1318050 
H     3.3999085   -2.6867523    3.0314328 
H     5.9514939   -1.7722718    1.5601085 
H     5.8872876   -2.8569925    2.9646276 
H     4.6191279   -4.5523172    1.6318724 
H     6.1395519   -4.1491079    0.8097314 
