132
Energy =
C     1.2365295   -0.5597874   -3.3037376 
C     1.0761866    0.8265655   -3.0196024 
C     1.8085996    1.4568526   -1.9859599 
H     0.2790656    1.3826611   -3.5295662 
Pd    0.5237750   -0.2578512   -1.1878087 
P     0.2013945    0.7775884    0.9017507 
P    -0.5004351   -2.2588793   -0.5163463 
H     2.2144638   -1.0052769   -3.0674400 
H     2.7396724    0.9691925   -1.6588768 
C    -0.9509163   -2.5989130   -6.4045425 
C    -1.5715662   -1.5741011   -5.6691303 
C    -0.8683068   -0.9027221   -4.6644881 
C     0.4709864   -1.2445227   -4.3652955 
C     1.0847142   -2.2694037   -5.1183320 
C     0.3820004   -2.9375861   -6.1301838 
H    -1.5038820   -3.1268067   -7.1880491 
H    -2.6126575   -1.3048782   -5.8763163 
H    -1.3726052   -0.1264735   -4.0792631 
H     2.1249073   -2.5415753   -4.9071020 
H     0.8765825   -3.7281131   -6.7040021 
C     1.5456343    5.5848805   -0.8007442 
C     2.6460499    4.7986819   -0.4311928 
C     2.7137983    3.4560114   -0.8221774 
C     1.6892984    2.8732663   -1.6020702 
C     0.5948894    3.6856918   -1.9823173 
C     0.5216364    5.0217230   -1.5811390 
H     1.4878370    6.6333809   -0.4903489 
H     3.4523212    5.2303159    0.1705351 
H     3.5674008    2.8414959   -0.5157617 
H    -0.2146019    3.2673252   -2.5872042 
H    -0.3399278    5.6287491   -1.8770048 
Fe   -0.1272060   -0.9540718    4.0119899 
C    -0.6162945   -0.2410471    2.1802957 
C    -0.6243563   -1.6981397    2.1994292 
C    -1.5867179   -2.1072824    3.1916347 
C    -2.1555171   -0.9360824    3.7899189 
C    -1.5627298    0.2137164    3.1776774 
C     0.9357484   -2.2111705    5.2115571 
C     1.8207341   -1.4212533    4.4015571 
C     1.5751793   -0.0371972    4.6973728 
C     0.5354997    0.0289214    5.6814369 
C     0.1379437   -1.3136820    6.0000974 
C    -0.9228615    2.2109966    0.7321826 
C    -1.7319772    2.2349122   -0.4184550 
C    -2.6684023    3.2551666   -0.6457797 
C    -2.7663407    4.2847835    0.3156100 
C    -1.9972986    4.2724429    1.5042979 
C    -1.0892342    3.2207505    1.7023124 
C     1.8362995    1.2822249    1.5637449 
C     2.1438847    2.5384279    2.1129617 
C     3.4231309    2.8109468    2.6297961 
C     4.4044672    1.7957108    2.5739919 
C     4.1279789    0.5226465    2.0196632 
C     2.8406201    0.2949849    1.5093952 
C     0.1339573   -2.6008065    1.2614544 
H    -1.8161776   -3.1352772    3.4755916 
H    -2.8865152   -0.9230179    4.6002977 
H    -1.7955737    1.2527064    3.4104316 
H     0.8687850   -3.3008280    5.2220077 
H     2.5517301   -1.8023190    3.6864875 
H     2.0785030    0.8139127    4.2380537 
H     0.1057500    0.9407011    6.0999818 
H    -0.6463433   -1.6021540    6.7023595 
H    -1.6206482    1.4341111   -1.1606905 
H    -0.5239605    3.1933905    2.6388712 
H     1.4004282    3.3374123    2.1251405 
H     2.6146672   -0.6849154    1.0699082 
H     1.1802816   -2.2517540    1.2117676 
H    -0.5548548   -4.6514319   -0.6741858 
H    -2.3646508   -1.2089329    0.4651368 
C    -4.6263672   -2.7459475    0.4031492 
C    -3.1710144   -3.1793500    0.1400962 
C    -2.3374916   -1.9722048   -0.3376343 
C    -2.9527778   -1.3163374   -1.5947236 
C    -4.4035406   -0.8875765   -1.3162099 
C    -5.2526425   -2.0754848   -0.8313052 
H    -4.6358761   -2.0359516    1.2535501 
H    -5.2254361   -3.6212342    0.7125282 
H    -3.1539812   -3.9765863   -0.6267782 
H    -2.7366495   -3.6056288    1.0599222 
H    -2.3394660   -0.4459032   -1.8916180 
H    -2.9281182   -2.0184311   -2.4474178 
H    -4.4007401   -0.0932373   -0.5435113 
H    -4.8449558   -0.4440659   -2.2274239 
H    -5.3340632   -2.8198324   -1.6480880 
H    -6.2812379   -1.7434010   -0.6038322 
C     1.5853423   -5.4754647   -2.2208810 
C     1.2995905   -4.0780673   -1.6427188 
C    -0.2135645   -3.8832727   -1.3949935 
C    -1.0120019   -4.0891821   -2.6994168 
C    -0.7198697   -5.4821952   -3.2907171 
C     0.7834499   -5.7177478   -3.5096928 
H     1.3157239   -6.2401783   -1.4656186 
H     2.6682140   -5.5872317   -2.4107351 
H     1.6373747   -3.3015817   -2.3540537 
H     1.8762294   -3.9240147   -0.7114100 
H    -2.0939204   -3.9947997   -2.5083141 
H    -0.7442135   -3.3086805   -3.4295406 
H    -1.1156078   -6.2564459   -2.6035640 
H    -1.2677592   -5.5934609   -4.2436133 
H     1.1450791   -5.0275312   -4.2943530 
H     0.9584822   -6.7430665   -3.8817465 
C     0.1446155   -4.0644063    1.7316653 
H     0.5026742   -4.0927954    2.7752534 
H    -0.8573120   -4.5230078    1.7053566 
H     0.8224092   -4.6850998    1.1256135 
C    -3.5352346    3.2611140   -1.8826128 
H    -4.4991832    3.7545686   -1.6791679 
H    -3.0484841    3.8115759   -2.7106470 
H    -3.7254810    2.2336720   -2.2352602 
C    -2.1800077    5.3668921    2.5286150 
H    -1.7222222    6.3130020    2.1844249 
H    -3.2509615    5.5713714    2.6934883 
H    -1.7103333    5.0971580    3.4883679 
O    -3.6900062    5.2921022    0.1460432 
C    -3.2561117    6.4103567   -0.6390703 
H    -4.0852005    7.1333000   -0.6354973 
H    -2.3545230    6.8804562   -0.2018420 
H    -3.0361955    6.1114888   -1.6819387 
C     3.7589776    4.1511426    3.2391046 
H     4.4527555    4.7219294    2.5944690 
H     2.8530363    4.7617357    3.3807312 
H     4.2642311    4.0203820    4.2108023 
C     5.1862424   -0.5552315    2.0087538 
H     5.7977819   -0.5023842    2.9245493 
H     4.7314717   -1.5570305    1.9365773 
H     5.8727262   -0.4411591    1.1489698 
O     5.6354836    2.0384426    3.1405448 
C     6.6641024    2.4903939    2.2485956 
H     7.5570545    2.6619452    2.8676319 
H     6.8935804    1.7322119    1.4761760 
H     6.3751499    3.4349728    1.7493829 
