132
Energy =
C     2.2977717   -2.2525621    0.1872235 
C     1.9940552   -2.4372170    1.5688342 
C     0.8063062   -3.1006065    1.9620557 
H     2.6006176   -1.9238729    2.3251698 
Pd    0.3504901   -1.2719102    0.6943113 
P    -1.6320972   -0.4565336    1.6663460 
P     0.3182760    0.1007505   -1.1829714 
H     1.9381608   -3.0245070   -0.5063807 
H     0.3290562   -3.7494423    1.2109082 
C     5.6428154    0.0078703   -1.3071570 
C     5.0223731   -0.9645971   -2.1046362 
C     3.9247346   -1.6827648   -1.6132385 
C     3.4294269   -1.4471425   -0.3109014 
C     4.0410880   -0.4348973    0.4660499 
C     5.1385930    0.2786798   -0.0243023 
H     6.5046225    0.5653983   -1.6872695 
H     5.3994497   -1.1718036   -3.1118303 
H     3.4457801   -2.4439821   -2.2387378 
H     3.6439506   -0.1900782    1.4568403 
H     5.5964931    1.0603902    0.5902207 
C    -0.6312167   -3.8151428    5.9546184 
C    -1.3543917   -4.2608853    4.8368004 
C    -0.8611460   -4.0334114    3.5472396 
C     0.3576499   -3.3426531    3.3424651 
C     1.0778197   -2.9069475    4.4788415 
C     0.5889624   -3.1449551    5.7683240 
H    -1.0102857   -3.9973254    6.9651812 
H    -2.3005951   -4.7950048    4.9719077 
H    -1.4248335   -4.3897796    2.6769501 
H     2.0303081   -2.3816567    4.3578885 
H     1.1644238   -2.8060560    6.6359545 
Fe   -2.0006775    2.7138459   -1.8188382 
C    -1.3270019    0.8469567   -1.4689811 
C    -2.2617190    1.2604916   -0.4302411 
C    -3.5118994    1.5712743   -1.0759785 
C    -3.3683076    1.3518104   -2.4842806 
C    -2.0324976    0.9047390   -2.7343782 
C    -2.5728750    4.4677654   -2.6832831 
C    -2.4453318    4.6208529   -1.2603219 
C    -1.0937402    4.2915367   -0.8986239 
C    -0.3857275    3.9451365   -2.0993091 
C    -1.2994362    4.0495645   -3.2000218 
C     0.6326086   -0.7510073   -2.7708722 
C     0.5221231   -2.1519118   -2.8205567 
C     0.7004532   -2.8619607   -4.0195298 
C     0.9964890   -2.1243472   -5.1886208 
C     1.0586858   -0.7098766   -5.1846005 
C     0.8663298   -0.0391606   -3.9666910 
C     1.5793764    1.4155682   -0.9598494 
C     2.5931547    1.7112852   -1.8876138 
C     3.5242643    2.7357983   -1.6431004 
C     3.4327315    3.4574798   -0.4322939 
C     2.4632017    3.1417866    0.5482098 
C     1.5557464    2.1120736    0.2651945 
C    -1.9912704    1.3009846    1.0522085 
H    -4.4087430    1.9487412   -0.5829171 
H    -4.1350349    1.5262740   -3.2411191 
H    -1.6175071    0.6433390   -3.7073441 
H    -3.4825509    4.6239521   -3.2659059 
H    -3.2414172    4.9236545   -0.5772753 
H    -0.6742949    4.2968682    0.1094443 
H     0.6579174    3.6329528   -2.1550298 
H    -1.0729061    3.8327073   -4.2456197 
H     0.2727271   -2.7035662   -1.9069575 
H     0.8776775    1.0560421   -3.9627635 
H     2.6972144    1.1240357   -2.8023463 
H     0.8317795    1.8309815    1.0375830 
H    -1.0049978    1.7740904    1.1948271 
H    -0.9744904   -1.3440205    3.7456636 
H    -2.9410137   -2.3809983    2.0787141 
C    -3.9656169   -3.3309215   -0.3334255 
C    -2.8887376   -2.2613176   -0.0839132 
C    -3.0696942   -1.5958761    1.3038475 
C    -4.4898701   -1.0022079    1.4350778 
C    -5.5589490   -2.0846955    1.1923126 
C    -5.3813724   -2.7515413   -0.1810101 
H    -3.8281399   -4.1581870    0.3916028 
H    -3.8300598   -3.7658151   -1.3401559 
H    -2.9441388   -1.4832761   -0.8689664 
H    -1.8773479   -2.7065545   -0.1537739 
H    -4.6363193   -0.5395607    2.4249261 
H    -4.6096589   -0.2053998    0.6787763 
H    -5.4861018   -2.8518020    1.9886258 
H    -6.5645603   -1.6352081    1.2781727 
H    -5.5531404   -1.9988305   -0.9757672 
H    -6.1380145   -3.5432948   -0.3248394 
C    -2.2874562   -0.2242126    5.8936199 
C    -2.6733650   -0.2179222    4.4011685 
C    -1.4128504   -0.3538194    3.5197045 
C    -0.3320640    0.7024431    3.8550482 
C     0.0101414    0.6965885    5.3555758 
C    -1.2514342    0.8640568    6.2178796 
H    -1.8679112   -1.2162314    6.1490960 
H    -3.1955361   -0.0910311    6.5086071 
H    -3.2162399    0.7151562    4.1692532 
H    -3.3644303   -1.0542937    4.1965735 
H     0.5752836    0.5035222    3.2511417 
H    -0.6878847    1.7126359    3.5743786 
H     0.4979454   -0.2633773    5.6079642 
H     0.7413250    1.4965433    5.5722835 
H    -1.6952476    1.8626202    6.0316514 
H    -0.9868862    0.8327031    7.2899311 
C    -3.0182002    2.1448758    1.8258250 
H    -3.0937695    3.1316431    1.3364396 
H    -4.0206613    1.6923682    1.8373323 
H    -2.7020838    2.3067163    2.8673112 
C     0.5692357   -4.3659618   -4.0735890 
H     0.1465184   -4.6828962   -5.0407722 
H     1.5541952   -4.8590942   -3.9680973 
H    -0.0748761   -4.7366677   -3.2591393 
C     1.3085154    0.0398590   -6.4717955 
H     0.7472267   -0.4181516   -7.3027881 
H     1.0191603    1.0992372   -6.3774716 
H     2.3787076    0.0090674   -6.7498316 
O     1.1346770   -2.7860133   -6.3875535 
C     2.4567590   -3.2469517   -6.7002756 
H     2.3902337   -3.7344329   -7.6841203 
H     3.1723419   -2.4044090   -6.7537976 
H     2.8168474   -3.9777921   -5.9514534 
C     4.6219463    3.0507830   -2.6305880 
H     4.3889198    3.9639193   -3.2096450 
H     5.5732948    3.2362189   -2.1053608 
H     4.7583469    2.2234489   -3.3452543 
C     2.4320343    3.8783415    1.8667229 
H     3.4528679    4.1398704    2.1899482 
H     1.8636288    4.8242792    1.7837068 
H     1.9486071    3.2693346    2.6491830 
O     4.3821157    4.4166911   -0.1565075 
C     4.0346824    5.7607080   -0.5202027 
H     4.8943915    6.3891478   -0.2441964 
H     3.8491873    5.8458477   -1.6077117 
H     3.1357836    6.1060260    0.0250294 
