106
Energy =
C    -3.2789030   -1.2735799   -1.1583977 
C    -2.7506464   -2.2582845   -0.2936827 
C    -2.5193939   -1.9685390    1.0906455 
H    -2.3700419   -3.1977337   -0.7141599 
Pd   -1.3320321   -0.5925280   -0.1768524 
P     0.1969476    0.2269791    1.3860993 
P    -0.2160835    0.3180800   -2.0067810 
H    -3.8310939   -0.4452998   -0.6863835 
H    -3.2080568   -1.2678599    1.5854514 
C    -4.0607903   -1.6209533   -5.3722430 
C    -3.1261946   -2.4809300   -4.7683598 
C    -2.8577569   -2.3832643   -3.4000742 
C    -3.5096271   -1.4121783   -2.6042221 
C    -4.4321251   -0.5412729   -3.2292780 
C    -4.7154818   -0.6532819   -4.5959807 
H    -4.2760114   -1.7074141   -6.4422774 
H    -2.6047900   -3.2338740   -5.3681702 
H    -2.1269007   -3.0592271   -2.9473863 
H    -4.9368851    0.2246019   -2.6303014 
H    -5.4436503    0.0219983   -5.0569410 
C    -0.4840818   -4.7218168    3.7021976 
C    -0.1207816   -4.6433603    2.3471960 
C    -0.7717011   -3.7452525    1.4955981 
C    -1.8069682   -2.9093405    1.9787832 
C    -2.1467369   -2.9857964    3.3460502 
C    -1.4931614   -3.8843520    4.1984478 
H     0.0220167   -5.4285436    4.3679302 
H     0.6766214   -5.2838817    1.9553193 
H    -0.4613247   -3.6707036    0.4467997 
H    -2.9375326   -2.3387218    3.7396790 
H    -1.7738734   -3.9296371    5.2554827 
Fe    3.2602308    1.0888259   -2.0585220 
C     1.3010059    1.2246085   -1.5723040 
C     2.1158486    1.0017803   -0.3798226 
C     3.0390983    2.1003075   -0.2949304 
C     2.8262557    2.9774927   -1.4052474 
C     1.7642269    2.4432960   -2.2009497 
C     4.5920599    1.3515109   -3.5818891 
C     5.2716015    0.9286781   -2.3906193 
C     4.7297662   -0.3398122   -1.9976188 
C     3.7089063   -0.6998112   -2.9400283 
C     3.6256354    0.3470947   -3.9214290 
C     1.9273612   -0.0560190    0.6838291 
H     3.7953434    2.2215838    0.4830835 
H     3.4021227    3.8768050   -1.6306692 
H     1.3589530    2.8756068   -3.1164946 
H     4.7606717    2.2874533   -4.1177159 
H     6.0475217    1.4856919   -1.8622976 
H     5.0402242   -0.9190028   -1.1263594 
H     3.0983547   -1.6038486   -2.9170346 
H     2.9407262    0.3798767   -4.7689619 
H     2.6338592    0.1589870    1.5053770 
C     2.0981347   -1.5078209    0.2048490 
H     3.1477133   -1.6819645   -0.0797953 
H     1.8187058   -2.2337546    0.9865779 
H     1.4684239   -1.7120374   -0.6749132 
C    -1.1378694    1.4435602   -3.0822924 
C    -1.8899211    1.2600426   -4.2252622 
C    -2.5528502    2.5052282   -4.4776908 
C    -2.1758168    3.3555463   -3.4700697 
H    -1.9757426    0.3385718   -4.7993896 
H    -3.2240480    2.7347703   -5.3053089 
H    -2.3991383    4.3945294   -3.2324565 
O    -1.3227470    2.7243294   -2.6092934 
C     0.1938879   -1.0069237   -3.1792322 
C     0.4758731   -1.0653892   -4.5282153 
C     0.7782606   -2.4319820   -4.8276706 
C     0.6679948   -3.1182515   -3.6435031 
H     0.4670594   -0.2239074   -5.2201255 
H     1.0476832   -2.8509843   -5.7973988 
H     0.8022137   -4.1611755   -3.3597945 
O     0.3102433   -2.2700048   -2.6360076 
C     0.2810936    4.8228812    1.8398610 
C    -0.4929254    4.2613169    0.8114319 
C    -0.5609768    2.8566585    0.7171235 
C     0.1445139    2.0466203    1.6194344 
C     0.9107252    2.6342664    2.6482140 
C     0.9850567    4.0303078    2.7715115 
H     0.3370777    5.9151833    1.9253269 
H    -1.1578707    2.3994448   -0.0796060 
H     1.4481165    1.9990601    3.3620731 
C     0.0107261   -1.2336208    5.7684746 
C    -0.9797327   -0.3649782    5.2642052 
C    -0.8908224    0.0376334    3.9240937 
C     0.1692093   -0.4074415    3.1031936 
C     1.1336954   -1.2811283    3.6268190 
C     1.0630578   -1.7069969    4.9698837 
H    -0.0471189   -1.5552137    6.8154020 
H    -1.6437234    0.7226600    3.5154560 
H     1.9604078   -1.6404095    3.0067215 
C    -1.2085544    5.1320169   -0.1972616 
H    -2.2213110    4.7483214   -0.4096711 
H    -1.2969077    6.1726172    0.1548355 
H    -0.6531657    5.1410865   -1.1535062 
C     1.7874071    4.6778346    3.8783737 
H     2.3653859    3.9329904    4.4494454 
H     2.4916895    5.4263708    3.4738487 
H     1.1230459    5.2069347    4.5860803 
C    -2.1242679    0.0876263    6.1426947 
H    -2.8325597   -0.7445317    6.3173751 
H    -1.7640851    0.4186094    7.1321704 
H    -2.6862063    0.9174495    5.6835285 
C     2.0978364   -2.6654757    5.5133777 
H     2.0180858   -3.6447244    5.0062598 
H     3.1222419   -2.2900127    5.3409575 
H     1.9700626   -2.8308769    6.5952800 
