122
Energy =
C     0.4716424   -2.8248145    1.5068136 
C     0.8429367   -2.0575924    2.6436694 
C    -0.1020164   -1.2362621    3.3046797 
H     1.8964397   -2.0179977    2.9450237 
Pd    0.2168880   -0.5987176    1.1050622 
P    -0.0313953    1.7136352    1.4978648 
P     0.2820162   -0.8571653   -1.2192966 
H    -0.5925604   -3.0869076    1.4128953 
H    -1.1628652   -1.4587887    3.1166108 
C     3.0742219   -5.3230572   -0.8372011 
C     3.6263982   -4.3319662   -0.0086552 
C     2.7954457   -3.5199277    0.7684142 
C     1.3900245   -3.6772953    0.7327242 
C     0.8522403   -4.6936400   -0.0899601 
C     1.6838343   -5.5068485   -0.8693661 
H     3.7264068   -5.9540888   -1.4496191 
H     4.7095139   -4.1816704    0.0277632 
H     3.2497955   -2.7466619    1.3951784 
H    -0.2324456   -4.8457633   -0.1123150 
H     1.2426596   -6.2795669   -1.5053939 
C     0.5253065    0.9402179    6.9541103 
C    -0.7502516    0.8649008    6.3755978 
C    -0.9344882    0.1701362    5.1751548 
C     0.1536085   -0.4570030    4.5237280 
C     1.4369098   -0.3569553    5.1111584 
C     1.6165878    0.3273641    6.3154820 
H     0.6709852    1.4731440    7.8993528 
H    -1.6069586    1.3382129    6.8661605 
H    -1.9348892    0.1031488    4.7363889 
H     2.3027588   -0.8216626    4.6309316 
H     2.6153155    0.3870219    6.7589754 
Fe   -3.0625174    2.1910827   -2.6809569 
C    -1.6616371    1.0490867   -1.7662237 
C    -1.7941896    2.3214590   -1.0696248 
C    -3.1733582    2.4556231   -0.6676229 
H    -3.5835475    3.3089353   -0.1257311 
C    -3.8820976    1.2760841   -1.0625234 
H    -4.9448231    1.0816067   -0.9089148 
C    -2.9634481    0.4144202   -1.7469102 
H    -3.2203315   -0.5328212   -2.2226949 
C    -2.8341567    1.9925568   -4.7025999 
H    -2.2014642    1.2622256   -5.2112867 
C    -2.4381852    3.3083211   -4.2885771 
H    -1.4569323    3.7588234   -4.4490487 
C    -3.5638682    3.9305868   -3.6480762 
H    -3.5921420    4.9336663   -3.2181400 
C    -4.6555026    3.0005400   -3.6724967 
H    -5.6476018    3.1644295   -3.2480712 
C    -4.2057762    1.8037793   -4.3251551 
H    -4.7960603    0.8987175   -4.4804724 
C    -0.7175716    3.3050469   -0.7666202 
C     0.2212500    3.0915624    0.2816406 
C     1.2720147    4.0142609    0.4699597 
H     2.0021007    3.8566371    1.2676436 
C     1.3841360    5.1554101   -0.3356595 
H     2.2104988    5.8544792   -0.1718892 
C     0.4217844    5.4058712   -1.3203534 
H     0.4789024    6.3093214   -1.9361268 
C    -0.6129901    4.4851540   -1.5255413 
H    -1.3601582    4.6552746   -2.3023696 
C     1.9835343   -1.1671210   -1.8325179 
C     2.3110058   -1.5524506   -3.1448625 
H     1.5346584   -1.7205480   -3.8972537 
C     3.6549170   -1.6956590   -3.5204712 
C     4.6883801   -1.4219925   -2.6131777 
H     5.7319106   -1.5205001   -2.9214453 
C     4.3633359   -1.0037194   -1.3157903 
C     3.0230815   -0.8897917   -0.9277202 
H     2.7683311   -0.5746256    0.0899870 
C    -0.7798094   -2.3082821   -1.6243179 
C    -1.9540871   -2.3958708   -0.8580467 
H    -2.1502243   -1.6494905   -0.0804770 
C    -2.8756757   -3.4290809   -1.0683429 
C    -2.6318140   -4.4072843   -2.0393543 
H    -3.3459634   -5.2189416   -2.2013828 
C    -1.4479085   -4.3348829   -2.7911721 
C    -0.5265630   -3.2955849   -2.5938525 
H     0.3916722   -3.2971574   -3.1835425 
C    -0.4263464    0.4616104   -2.4015956 
H    -0.7502102   -0.1219730   -3.2822582 
C     0.6512627    1.4703187   -2.8351432 
H     0.1593916    2.3077129   -3.3552912 
H     1.2083730    1.8855998   -1.9803192 
H     1.3735697    1.0039695   -3.5233410 
C    -4.1369258   -3.4202156   -0.2359521 
F    -4.9473340   -2.3922506   -0.5992550 
F    -4.8394349   -4.5609566   -0.3459456 
F    -3.8396541   -3.2328142    1.0804061 
C    -1.1326545   -5.4442754   -3.7733786 
F    -0.1940980   -5.0695445   -4.6703816 
F    -0.6570687   -6.5406663   -3.1235917 
F    -2.2329968   -5.8317503   -4.4512166 
C     3.9525211   -2.1318568   -4.9408878 
F     5.2731291   -2.2722341   -5.1662045 
F     3.3512195   -3.3160246   -5.2106083 
F     3.4681682   -1.2302847   -5.8297863 
C     5.4402602   -0.7041878   -0.2964407 
F     5.1419073    0.4192739    0.4119142 
F     5.5540819   -1.7102952    0.6150655 
F     6.6476983   -0.5313996   -0.8608723 
C     3.3943075    2.7216311    4.4794021 
C     3.6267600    1.9496161    3.3304464 
C     2.5615341    1.6323560    2.4788992 
C     1.2557706    2.0942157    2.7576609 
C     1.0264571    2.8509040    3.9202828 
C     2.0952715    3.1597648    4.7748077 
H     4.2234187    2.9731353    5.1488076 
H     4.6340289    1.5956633    3.0880138 
H     2.7534432    1.0458757    1.5737680 
H     0.0176924    3.1880320    4.1727719 
H     1.9055805    3.7422186    5.6820130 
C    -4.2470146    2.7723377    3.1461972 
C    -3.2748953    3.7793153    3.0262897 
C    -1.9968207    3.4712617    2.5413263 
C    -1.6759257    2.1420203    2.1935407 
C    -2.6624468    1.1433872    2.2952034 
C    -3.9428363    1.4551773    2.7714625 
H    -5.2467345    3.0191815    3.5184117 
H    -3.5166207    4.8110626    3.3019756 
H    -1.2552230    4.2672369    2.4133923 
H    -2.4307811    0.1233553    1.9696669 
H    -4.7049991    0.6719094    2.8369942 
