142
Energy =
C    -0.4151625    3.2019321    1.1002180 
C    -0.7353230    2.5457722    2.3109136 
C     0.2612502    1.8573508    3.0646017 
H    -1.7875174    2.4379697    2.6054267 
Pd    0.0727532    0.9266958    1.0513771 
P     0.9974798   -1.1560099    1.5843105 
P    -0.2172193    0.5482643   -1.2680878 
H     0.6450546    3.4300027    0.9197022 
H     1.2935104    2.2343354    2.9983672 
C    -3.1468094    5.3358885   -1.4442627 
C    -1.8457363    5.0406634   -1.8798615 
C    -0.9574205    4.3685527   -1.0348027 
C    -1.3625407    3.9470521    0.2533644 
C    -2.6697747    4.2693792    0.6869792 
C    -3.5476788    4.9639488   -0.1511068 
H    -3.8404605    5.8701284   -2.1019942 
H    -1.5177739    5.3410379   -2.8801656 
H     0.0562944    4.1466231   -1.3798832 
H    -3.0000593    3.9930034    1.6935367 
H    -4.5493474    5.2205432    0.2082257 
C    -0.6075427   -0.3567045    6.6542235 
C    -1.4746544   -0.4436695    5.5516807 
C    -1.2030900    0.2802661    4.3854196 
C    -0.0529822    1.0972456    4.2939619 
C     0.8085703    1.1785113    5.4079552 
C     0.5276307    0.4633202    6.5799522 
H    -0.8086652   -0.9344021    7.5614849 
H    -2.3632402   -1.0824196    5.6027475 
H    -1.8681252    0.1945148    3.5182255 
H     1.7064683    1.8025744    5.3502400 
H     1.2099766    0.5286473    7.4327179 
Fe   -3.1029846   -3.3263315    0.4310493 
C    -1.5892066   -2.1003639    1.0644677 
C    -1.7015091   -2.0673979   -0.3851940 
C    -3.0473125   -1.6580734   -0.7038986 
H    -3.4455295   -1.5451575   -1.7128031 
C    -3.7527032   -1.4109377    0.5176640 
H    -4.7972030   -1.1058824    0.6018703 
C    -2.8606033   -1.6844215    1.6050306 
H    -3.1071511   -1.6361460    2.6677807 
C    -2.6690827   -5.3388334    0.3711960 
H    -1.6896881   -5.8170944    0.3199482 
C    -3.4836519   -4.9592853   -0.7487125 
H    -3.2232226   -5.0658030   -1.8034613 
C    -4.7021743   -4.4007430   -0.2400881 
H    -5.5195387   -3.9940833   -0.8385004 
C    -4.6400714   -4.4305182    1.1935888 
H    -5.4051018   -4.0555395    1.8761018 
C    -3.3830406   -5.0085765    1.5719220 
H    -3.0416917   -5.1742823    2.5955961 
C    -0.5988559   -2.2670742   -1.3678306 
C     0.1432845   -1.1612975   -1.8773084 
C     1.1931709   -1.3890058   -2.7887850 
H     1.7869815   -0.5461139   -3.1538806 
C     1.5095810   -2.6877128   -3.2103447 
H     2.3339619   -2.8425094   -3.9139796 
C     0.7768119   -3.7774131   -2.7243121 
H     1.0220494   -4.7952854   -3.0405803 
C    -0.2648996   -3.5594258   -1.8134526 
H    -0.8490822   -4.3979037   -1.4275075 
C     0.9387713    1.6570066   -2.1746655 
C     1.9302396    2.3328403   -1.4352228 
H     1.9866352    2.1799919   -0.3492596 
C     2.8288220    3.2235572   -2.0377854 
C     2.7378391    3.4059221   -3.4361964 
C     1.7369073    2.7704781   -4.2086460 
C     0.8426602    1.9041036   -3.5572706 
H     0.0560827    1.4297874   -4.1505878 
C    -1.8994175    0.8784143   -1.9169952 
C    -2.8836929    1.3791960   -1.0486384 
H    -2.6309591    1.5660083   -0.0007239 
C    -4.2033339    1.5709611   -1.4819709 
C    -4.5126775    1.2730528   -2.8283139 
C    -3.5533648    0.7328958   -3.7180146 
C    -2.2499924    0.5290316   -3.2355766 
H    -1.5184821    0.0429147   -3.8908961 
C     2.3079916   -1.7457801    0.4067380 
C     2.6500187   -3.0910511    0.1897243 
H     2.0946453   -3.8992081    0.6613691 
C     3.7250405   -3.4227841   -0.6492686 
C     4.4902416   -2.4290558   -1.2679714 
H     5.3294853   -2.6965108   -1.9139492 
C     4.1573277   -1.0861890   -1.0469303 
C     3.0751826   -0.7474396   -0.2246297 
H     2.8220115    0.3065397   -0.0853824 
C     2.0028269   -1.1507347    3.1394582 
C     3.0677096   -0.2348072    3.1960046 
H     3.2881422    0.4152517    2.3426392 
C     3.8498928   -0.1220623    4.3523623 
C     3.5996262   -0.9360866    5.4634367 
H     4.2060449   -0.8390206    6.3675402 
C     2.5346030   -1.8458469    5.4097732 
C     1.7329452   -1.9497005    4.2643160 
H     0.8919753   -2.6448287    4.2861131 
C    -0.3685912   -2.4130836    1.9079534 
H    -0.6350158   -2.1060718    2.9372032 
C     0.0295942   -3.8999610    1.9353575 
H    -0.7751812   -4.4642125    2.4298894 
H     0.1317722   -4.2946710    0.9140571 
H     0.9662859   -4.0774456    2.4906831 
C     4.8869401    0.9771519    4.4075141 
F     5.7290842    0.8421310    5.4481956 
F     5.6192825    1.0296823    3.2714505 
F     4.2713041    2.1904774    4.5315439 
C     2.2526254   -2.7196279    6.6147046 
F     3.1552299   -3.7197187    6.7192226 
F     2.3127996   -2.0034785    7.7641842 
F     1.0223684   -3.2845904    6.5494962 
C     4.0484706   -4.8888150   -0.8481391 
F     2.9343226   -5.5864008   -1.1978213 
F     4.5142390   -5.4455743    0.2933185 
F     4.9718825   -5.0798754   -1.8120133 
C     4.9232557    0.0091718   -1.7523666 
F     4.2739481    0.4207790   -2.8799049 
F     5.0643801    1.1028209   -0.9626295 
F     6.1532811   -0.3907255   -2.1304847 
C     3.8621345    3.9832463   -1.2432446 
H     3.7266887    3.8239497   -0.1609771 
H     4.8837363    3.6589356   -1.5059819 
H     3.8003416    5.0632195   -1.4597970 
C     1.6295743    3.0386228   -5.6912801 
H     0.5959238    2.8937007   -6.0460586 
H     1.9502536    4.0674850   -5.9224540 
H     2.2765308    2.3519129   -6.2690200 
C    -5.3001675    2.0101188   -0.5426039 
H    -4.9271335    2.0876074    0.4909162 
H    -5.7111853    2.9935256   -0.8300717 
H    -6.1400157    1.2940441   -0.5713001 
C    -3.9427011    0.3529875   -5.1274478 
H    -3.8686175    1.2201854   -5.8105682 
H    -3.2809606   -0.4351826   -5.5228037 
H    -4.9859257   -0.0015992   -5.1590116 
O     3.6136872    4.2833141   -4.0293606 
O    -5.8189886    1.4208277   -3.2410509 
C     4.7702393    3.6830035   -4.6377149 
H     5.4340911    4.5117276   -4.9244211 
H     5.2890251    3.0138171   -3.9264496 
H     4.4960746    3.1024783   -5.5384710 
C    -6.1210460    2.6577923   -3.9024481 
H    -5.5687815    2.7519376   -4.8564466 
H    -7.2021526    2.6454663   -4.1057916 
H    -5.8740525    3.5242617   -3.2591786 
