86
Energy =
C     0.4186759    1.4317742   -1.5891960 
C    -0.3673278    2.4670692   -0.9190689 
C     0.1780768    3.4670587   -0.1647936 
H    -1.4533522    2.4353513   -1.0642076 
Pd    0.3626877   -0.2400179   -0.2721270 
P    -0.1159717    0.4621539    1.9089459 
P     0.7962137   -2.0435782   -1.6199536 
H     1.5054944    1.6183330   -1.5432482 
H     1.2716156    3.4801218   -0.0517889 
C    -0.8034383    0.2692004   -5.5728956 
C    -1.7650463    0.3863320   -4.5540578 
C    -1.3807004    0.7439981   -3.2566359 
C    -0.0234945    0.9935792   -2.9451628 
C     0.9331523    0.8625375   -3.9776760 
C     0.5481131    0.5075276   -5.2779845 
H    -1.1068289   -0.0052081   -6.5881736 
H    -2.8207226    0.1962412   -4.7739917 
H    -2.1398787    0.8170424   -2.4701485 
H     1.9883435    1.0622824   -3.7591940 
H     1.3050192    0.4251140   -6.0650701 
C    -1.8576882    6.4703723    2.1313142 
C    -2.5911163    5.6620393    1.2447186 
C    -1.9438605    4.6979066    0.4675623 
C    -0.5401950    4.5104342    0.5612999 
C     0.1844665    5.3536713    1.4413269 
C    -0.4653504    6.3167224    2.2204818 
H    -2.3690335    7.2242325    2.7385104 
H    -3.6747532    5.7920368    1.1559060 
H    -2.5309493    4.0936401   -0.2313066 
H     1.2719823    5.2370064    1.5162727 
H     0.1149561    6.9521495    2.8974302 
Fe    0.5416412   -2.8942409    1.7293911 
C     0.3077153   -3.2222372   -0.3155706 
C    -0.9755008   -3.1334450    0.3643322 
H    -1.7677881   -2.4188572    0.1318641 
C    -1.0293469   -4.1583221    1.3574318 
H    -1.8625270   -4.3512077    2.0354045 
C     0.2178078   -4.8669694    1.3299442 
H     0.4991102   -5.6943050    1.9840036 
C     1.0469960   -4.2865546    0.3143155 
C     0.6306438   -1.0345538    2.6366593 
C     1.9547988   -1.4996111    2.2584823 
H     2.6404382   -0.9773565    1.5877829 
C     2.2040732   -2.7376795    2.9241302 
H     3.1079204   -3.3429353    2.8367093 
C     1.0418227   -3.0634914    3.7001781 
H     0.9086561   -3.9606774    4.3075745 
C     0.0708455   -2.0239093    3.5217258 
H     2.0603266   -4.6053183    0.0661276 
H    -0.9184524   -1.9944761    3.9803270 
C    -1.9072832    0.4364865    2.4736569 
C    -1.8799836    1.2413370    3.7944160 
C    -0.9392338    2.4433909    3.5858286 
C     0.4005450    1.9283217    2.9941390 
H    -2.1831470   -0.6197575    2.6376631 
H    -2.8969571    1.5627513    4.0833404 
H    -1.4970834    0.6025879    4.6123674 
H    -1.3981113    3.1652821    2.8872499 
H    -0.7565054    2.9881096    4.5287379 
H     0.8319046    2.6842096    2.3178179 
C     2.5311349   -2.5210582   -2.1718629 
C     2.3664666   -2.8434678   -3.6780056 
C     0.9932820   -3.5047827   -3.8743994 
C    -0.0512625   -2.5865742   -3.2034947 
H     2.7642174   -3.4606325   -1.6390577 
H     2.4077809   -1.9035144   -4.2605064 
H     3.1956825   -3.4830938   -4.0278018 
H     0.7523212   -3.6470061   -4.9431453 
H     0.9774362   -4.5048342   -3.3986238 
H    -0.1177140   -1.6535257   -3.7895493 
C    -1.4546390   -3.1699009   -3.0318471 
H    -1.4423193   -4.0901999   -2.4224228 
H    -2.1350208   -2.4429275   -2.5552603 
C     3.5983122   -1.4719657   -1.8399492 
H     3.6802770   -1.3135111   -0.7509397 
H     4.5849758   -1.7978297   -2.2136438 
C    -2.8420214    1.0318297    1.4064889 
H    -3.8896658    0.9805282    1.7516485 
H    -2.7590356    0.4770792    0.4550880 
C     1.4431560    1.5466316    4.0570965 
H     1.7217359    2.4452084    4.6356311 
H     2.3612356    1.1368672    3.6032307 
H     1.0518036    0.7930913    4.7622560 
H    -2.6051256    2.0901410    1.2050508 
H     3.3595522   -0.5008021   -2.3072213 
H    -1.8749805   -3.4194456   -4.0218776 
