134
Energy =
C    -1.7613839    0.8377435   -3.1222664 
C    -0.7019224    0.0438864   -3.6244754 
C    -0.6286376   -1.3520641   -3.3782037 
H     0.1425068    0.5385033   -4.1200942 
Pd   -0.6227628   -0.1860248   -1.4208762 
P     0.6003857   -1.6434794   -0.0737531 
P    -1.1371143    1.4443526    0.2002208 
H    -2.6977364    0.3214367   -2.8626359 
H    -1.5710469   -1.8710820   -3.1467527 
C    -2.2961082    5.0503486   -3.8219134 
C    -3.3693567    4.2450055   -3.4159339 
C    -3.1735333    2.8794049   -3.1783956 
C    -1.9033028    2.2858630   -3.3520538 
C    -0.8333226    3.1099303   -3.7744392 
C    -1.0268181    4.4746493   -4.0017761 
H    -2.4454917    6.1195879   -4.0042233 
H    -4.3649382    4.6798883   -3.2811362 
H    -4.0140082    2.2579062   -2.8508114 
H     0.1634561    2.6830648   -3.9236206 
H    -0.1843994    5.0960800   -4.3230461 
C     2.4373042   -3.9649954   -4.8998222 
C     2.6932606   -2.5881231   -4.7855180 
C     1.7095087   -1.7267939   -4.2900520 
C     0.4449856   -2.2212861   -3.8925651 
C     0.1999528   -3.6056305   -4.0289608 
C     1.1840607   -4.4687407   -4.5236729 
H     3.2087947   -4.6379190   -5.2882757 
H     3.6660274   -2.1845506   -5.0856499 
H     1.9328864   -0.6588391   -4.2007531 
H    -0.7790367   -4.0043563   -3.7464924 
H     0.9704341   -5.5383198   -4.6145585 
Fe    3.4548048    0.8359367    2.5549619 
C     2.3304543    0.4590186    0.8978761 
C     1.5098936    1.0462241    1.9550285 
C     2.1034039    2.3221716    2.2989360 
H     1.7046846    2.9931376    3.0606368 
C     3.2425884    2.5485801    1.4734078 
H     3.9019188    3.4171063    1.5037287 
C     3.3865591    1.4119963    0.6195426 
H     4.1898292    1.2780993   -0.1047908 
C     3.6422860   -0.6719146    3.9262508 
H     2.8898839   -1.4170852    4.1872992 
C     3.8211498    0.6087733    4.5543272 
H     3.2272855    1.0157414    5.3748908 
C     4.9195522    1.2683974    3.9082020 
H     5.2944877    2.2667815    4.1407643 
C     5.4190852    0.3987572    2.8806524 
H     6.2399595    0.6207114    2.1961128 
C     4.6281062   -0.7992906    2.8907480 
H     4.7551333   -1.6554780    2.2240529 
C     0.2052545    0.7141718    2.6045967 
C    -1.0450221    1.0158326    1.9920529 
C    -2.2306035    0.9358218    2.7509106 
H    -3.1885812    1.1844385    2.2867787 
C    -2.2052502    0.5434948    4.0943715 
H    -3.1387082    0.4927750    4.6638552 
C    -0.9852416    0.2068467    4.6907921 
H    -0.9486847   -0.1216602    5.7344543 
C     0.1994939    0.3068753    3.9517660 
H     1.1601135    0.0793092    4.4158114 
C    -0.0179777   -2.1610685    1.5767633 
C    -1.3961961   -2.1339541    1.8348283 
H    -2.0735156   -1.6755147    1.1047899 
C    -1.9141155   -2.6699202    3.0280287 
C    -1.0135393   -3.2282177    3.9524159 
H    -1.4040912   -3.6388811    4.8916250 
C     0.3744910   -3.2733701    3.7139143 
C     0.8615847   -2.7428244    2.5084798 
H     1.9346069   -2.7965767    2.2953835 
C     0.9006642   -3.3486432   -0.7237690 
C    -0.2592207   -4.1315532   -0.9035676 
H    -1.2466890   -3.6830831   -0.7359952 
C    -0.1734247   -5.4830129   -1.2672228 
C     1.1055796   -6.0392806   -1.4712979 
H     1.1883169   -7.0934957   -1.7623282 
C     2.2763529   -5.2806157   -1.3185602 
C     2.1611270   -3.9304863   -0.9261162 
H     3.0796441   -3.3555044   -0.7757918 
C     2.2864445   -0.8749050    0.1482872 
H     2.8777273   -1.6188362    0.7109294 
C     2.8967733   -0.7098811   -1.2646168 
H     2.7065682   -1.5822947   -1.9061923 
H     2.4613711    0.1747572   -1.7598504 
H     3.9887654   -0.5729058   -1.2021684 
C    -1.4183771   -6.3144954   -1.4806678 
C     3.6381694   -5.8738276   -1.5992009 
C    -3.4011694   -2.6502704    3.2997089 
C     1.3145278   -3.8553046    4.7465489 
C    -5.6319921    2.4356849   -0.3566541 
C    -4.7439463    3.5070459   -0.1702429 
C    -3.3702446    3.2259499   -0.0077276 
C    -2.9052529    1.9041613   -0.0266113 
C    -3.8188567    0.8456726   -0.2296575 
C    -5.1903284    1.0947754   -0.3910676 
H    -6.7000367    2.6463233   -0.4906410 
H    -2.6662767    4.0556368    0.1038370 
H    -3.4509364   -0.1885212   -0.2643038 
C     1.4634966    5.2372452   -0.2032583 
C     0.5174181    5.1803506    0.8431594 
C    -0.2770052    4.0295014    0.9619448 
C    -0.1361561    2.9676200    0.0439542 
C     0.8233644    3.0424150   -0.9731892 
C     1.6403642    4.1807638   -1.1107360 
H     2.0949944    6.1293013   -0.2979196 
H    -0.9882839    3.9447420    1.7916590 
H     0.9503040    2.1874711   -1.6474100 
H    -3.9021004   -1.8552241    2.7220487 
H    -3.8648136   -3.6149235    3.0192925 
H    -3.6111727   -2.4839010    4.3697807 
H     1.4364226   -3.1608494    5.5994270 
H     0.9261929   -4.8042232    5.1548529 
H     2.3147938   -4.0459849    4.3237817 
H    -2.3068229   -5.8374792   -1.0348032 
H    -1.6161199   -6.4512956   -2.5612758 
H    -1.3090441   -7.3212777   -1.0421748 
H     3.6120357   -6.9757305   -1.5906559 
H     3.9938561   -5.5526960   -2.5967630 
H     4.3867981   -5.5383888   -0.8606540 
C    -5.2294710    4.9388138   -0.1426391 
H    -5.2315832    5.3310007    0.8914224 
H    -4.5672589    5.5915949   -0.7376134 
H    -6.2546385    5.0284198   -0.5373505 
C    -6.1743806   -0.0348107   -0.6001933 
H    -6.9140416   -0.0701420    0.2201094 
H    -6.7401836    0.0993218   -1.5395743 
H    -5.6659940   -1.0123343   -0.6424604 
C     0.3999539    6.3170181    1.8343648 
H     1.2874661    6.3540644    2.4934992 
H     0.3373897    7.2918890    1.3198860 
H    -0.4904388    6.2064614    2.4748153 
C     2.6764297    4.2416292   -2.2097096 
H     2.1947345    4.3378365   -3.2007450 
H     3.3568667    5.0992347   -2.0828869 
H     3.2836203    3.3187869   -2.2287851 
