90
Energy =
C     2.6065078   -1.1072969    1.2209948 
C     2.9611908   -0.1973232    0.1871605 
C     2.9214065    1.2020214    0.3547642 
H     3.2015392   -0.6018822   -0.8048492 
Pd    0.8391447    0.1895306    0.6532715 
P    -0.5418271    1.7332406   -0.5496587 
P    -0.9374533   -1.2513317    1.3463138 
H     2.7585659   -0.7785897    2.2591927 
H     2.9299567    1.5913776    1.3840444 
C     2.7841602   -5.3617618    0.5501184 
C     2.3479873   -4.5066682   -0.4765368 
C     2.2894887   -3.1256366   -0.2629776 
C     2.6644233   -2.5653168    0.9820635 
C     3.1146579   -3.4360235    1.9977974 
C     3.1724043   -4.8198763    1.7843005 
H     2.8252656   -6.4432206    0.3856887 
H     2.0457379   -4.9211705   -1.4441715 
H     1.9115870   -2.4726864   -1.0575240 
H     3.4248452   -3.0218714    2.9631201 
H     3.5259123   -5.4777849    2.5849277 
C     4.3217467    3.9896444   -2.6087230 
C     3.8048006    2.7471370   -3.0148931 
C     3.3361949    1.8349772   -2.0650174 
C     3.3664830    2.1472379   -0.6837126 
C     3.8889823    3.4005885   -0.2925466 
C     4.3666619    4.3101664   -1.2440680 
H     4.6899362    4.7017758   -3.3541910 
H     3.7652339    2.4910213   -4.0785721 
H     2.9200582    0.8807987   -2.4036240 
H     3.9268442    3.6576803    0.7717914 
H     4.7750247    5.2723916   -0.9186039 
Fe   -1.7116413   -1.0710834   -2.0513462 
C    -0.8386792    0.7475071   -2.0576999 
C    -1.9246205    0.7164705   -3.0170335 
H    -2.8026178    1.3591205   -3.0297200 
C    -1.6604108   -0.3239176   -3.9637089 
H    -2.3174764   -0.6126941   -4.7862175 
C    -0.4112408   -0.9390936   -3.6268274 
H     0.0540365   -1.7778547   -4.1473790 
C     0.1014601   -0.2829431   -2.4640442 
C    -1.9053349   -1.7550534   -0.1312529 
C    -1.4397178   -2.7984568   -1.0238886 
H    -0.5024816   -3.3490133   -0.9253993 
C    -2.4204149   -2.9874489   -2.0515948 
H    -2.3476667   -3.6938572   -2.8803944 
C    -3.4853464   -2.0564702   -1.8271452 
H    -4.3713327   -1.9295769   -2.4517921 
C    -3.1725523   -1.2897631   -0.6551914 
C    -0.4235050   -2.9297850    2.0494544 
C    -2.0816064   -0.6910550    2.7704526 
H     1.0273591   -0.5260575   -1.9401741 
H    -3.7981474   -0.5034996   -0.2378900 
C    -2.1953632    2.1324259    0.2513698 
C     0.2265223    3.3165330   -1.2084845 
H     0.3143784   -3.3112356    1.3241289 
H    -2.0575964   -1.5862599    3.4146281 
H    -2.3834938    1.1837551    0.7816310 
H     1.1095807    2.9017547   -1.7279363 
C    -2.0351392    3.2427988    1.3089463 
H    -2.8809105    3.1977686    2.0173928 
H    -1.1009521    3.1523846    1.8881261 
H    -2.0508670    4.2394485    0.8384790 
C    -3.4140412    2.4144949   -0.6430837 
H    -4.2788128    2.6518903    0.0032221 
H    -3.2552348    3.2760796   -1.3110651 
H    -3.6858579    1.5398794   -1.2510122 
C     0.7345078    4.2602912   -0.1030650 
H     1.4866493    4.9441937   -0.5299179 
H    -0.0774225    4.8748896    0.3154932 
H     1.2134453    3.7088016    0.7236492 
C    -0.6320959    4.0557791   -2.2492025 
H    -0.0231375    4.8447427   -2.7259445 
H    -0.9922185    3.3835975   -3.0457476 
H    -1.5017221    4.5488083   -1.7818750 
C     0.2797680   -2.7532610    3.4070204 
H     0.7733684   -3.6988536    3.6866274 
H     1.0492839   -1.9648307    3.3788945 
H    -0.4361417   -2.5044916    4.2102959 
C    -1.5876691   -3.9318203    2.1481791 
H    -1.1998009   -4.8950850    2.5250018 
H    -2.3649896   -3.5926988    2.8567418 
H    -2.0674518   -4.1168359    1.1740999 
C    -1.4030667    0.4479359    3.5497471 
H    -1.9688707    0.6588104    4.4747869 
H    -0.3709707    0.1822952    3.8355416 
H    -1.3567688    1.3743264    2.9582624 
C    -3.5685718   -0.4355202    2.4828631 
H    -4.0837470   -0.2711267    3.4462757 
H    -3.7460434    0.4613639    1.8666247 
H    -4.0440773   -1.2996528    1.9922177 
