134
Energy =
C    -3.7432871   -0.5925127   -0.7360033 
C    -3.0853597   -1.1165997   -1.8666438 
C    -2.2562105   -2.2789582   -1.7200371 
H    -3.1218871   -0.5792085   -2.8226301 
Pd   -1.4103372   -0.6230943   -0.5202362 
P     0.5770502   -1.6715470    0.1655710 
P    -0.9762001    1.5364384    0.2788094 
H    -3.7809109   -1.2451973    0.1503711 
H    -2.5694099   -3.0048847   -0.9603881 
C    -6.3909228    2.7665547   -0.3965487 
C    -6.1337934    1.9376219    0.7067964 
C    -5.2754074    0.8420077    0.5702373 
C    -4.6479870    0.5561567   -0.6672598 
C    -4.9405012    1.3854809   -1.7746629 
C    -5.7993291    2.4791496   -1.6374445 
H    -7.0617648    3.6259037   -0.2947992 
H    -6.6082836    2.1428478    1.6720363 
H    -5.0789296    0.1918167    1.4303600 
H    -4.4962420    1.1726118   -2.7504666 
H    -6.0079751    3.1150253   -2.5033217 
C     0.0468025   -4.0138321   -4.9133020 
C    -0.2147993   -2.6336890   -4.9149386 
C    -0.9449316   -2.0536376   -3.8726692 
C    -1.4421181   -2.8453375   -2.8101250 
C    -1.1423908   -4.2273813   -2.8046001 
C    -0.4072669   -4.8051246   -3.8469412 
H     0.6130371   -4.4667786   -5.7332647 
H     0.1565053   -2.0067939   -5.7324855 
H    -1.1222846   -0.9720621   -3.8747291 
H    -1.4961263   -4.8486455   -1.9749913 
H    -0.1954106   -5.8793715   -3.8306884 
Fe    2.5778905    0.4843831    4.1039596 
C     1.7622359    0.0733024    2.2699392 
C     1.1925505    1.2982583    2.8159204 
C     2.2880822    2.2054335    3.0777946 
H     2.1778997    3.2099602    3.4904048 
C     3.5123608    1.5806208    2.6781057 
H     4.5116406    2.0117123    2.7604712 
C     3.1962575    0.2643715    2.2094052 
H     3.9164263   -0.4889957    1.8854270 
C     1.7057007   -0.2570282    5.8112780 
H     0.6389387   -0.3701970    6.0147936 
C     2.5053269    0.8979858    6.1109893 
H     2.1594037    1.8220502    6.5783784 
C     3.8505604    0.6244356    5.6927465 
H     4.6973180    1.3092688    5.7672836 
C     3.8821903   -0.6978424    5.1335927 
H     4.7571405   -1.1926338    4.7078255 
C     2.5563125   -1.2414002    5.2046844 
H     2.2474819   -2.2278174    4.8525262 
C    -0.2292081    1.6590080    3.0802082 
C    -1.2333189    1.7765955    2.0783668 
C    -2.5760744    1.9941020    2.4689629 
H    -3.3578274    2.0176523    1.7043649 
C    -2.9268592    2.1945021    3.8064432 
H    -3.9745053    2.3640745    4.0756289 
C    -1.9234081    2.1941567    4.7856541 
H    -2.1694555    2.3799214    5.8362064 
C    -0.6035405    1.9203549    4.4171587 
H     0.1817598    1.8738113    5.1747141 
C     0.3511435   -3.4947082    0.3991984 
C     1.4310035   -4.3919147    0.2916066 
H     2.4253527   -4.0256794    0.0163073 
C     1.2514150   -5.7695365    0.5198806 
C    -0.0272534   -6.2305971    0.8836797 
H    -0.1764068   -7.3028562    1.0614734 
C    -1.1171284   -5.3534328    1.0396717 
C    -0.9084432   -3.9854520    0.7931453 
H    -1.7416394   -3.2860867    0.9239812 
C     2.0214814   -1.5525484   -0.9653401 
C     3.0003395   -0.5556381   -0.8057951 
H     2.8934730    0.1987992   -0.0274693 
C     4.1259549   -0.5005525   -1.6483063 
C     4.2277727   -1.4364864   -2.6904420 
H     5.1034636   -1.4085594   -3.3505160 
C     3.2305920   -2.4053195   -2.9180558 
C     2.1242238   -2.4524515   -2.0509062 
H     1.3529789   -3.2119291   -2.2133315 
C     1.0903611   -1.2473999    1.9732534 
H     1.8426845   -2.0308015    2.1753764 
C    -0.1519508   -1.5040568    2.8534670 
H     0.0478387   -1.1148690    3.8632706 
H    -1.0449242   -0.9837488    2.4642087 
H    -0.3759617   -2.5788670    2.9253952 
C     5.2041732    0.5310555   -1.4018048 
C     3.3543412   -3.3714494   -4.0751748 
C     2.4030174   -6.7378327    0.3592267 
C    -2.4775834   -5.8741104    1.4490644 
C    -3.2673669    4.7229246   -2.1982182 
C    -2.6985029    3.5915524   -2.8154426 
C    -2.0925990    2.6255826   -1.9995061 
C    -2.0268541    2.7888407   -0.6000019 
C    -2.5849055    3.9333011   -0.0123517 
C    -3.2315544    4.9039120   -0.8059278 
H    -3.7545868    5.4824832   -2.8217547 
H    -1.6457204    1.7354617   -2.4608329 
H    -2.5116311    4.0965640    1.0673077 
C     2.8033300    3.5463129   -1.4205194 
C     2.2227605    2.4581780   -2.0977849 
C     1.1482557    1.7909100   -1.4823697 
C     0.6348242    2.2393255   -0.2527534 
C     1.1990183    3.3601249    0.3794925 
C     2.3157940    4.0046348   -0.1799902 
H     3.6561597    4.0625404   -1.8784205 
H     0.6987647    0.9204370   -1.9765366 
H     0.7618191    3.7422282    1.3074987 
H     2.2673948   -7.3586138   -0.5459470 
H     3.3658393   -6.2098402    0.2632133 
H     2.4692785   -7.4272516    1.2189163 
H    -3.2009658   -5.0532797    1.5863384 
H    -2.8841074   -6.5616901    0.6849780 
H    -2.4188480   -6.4405670    2.3954233 
H     5.9044919    0.1831513   -0.6187931 
H     5.7955893    0.7256977   -2.3116865 
H     4.7686732    1.4832144   -1.0537594 
H     4.4097137   -3.6272754   -4.2697336 
H     2.7946904   -4.3012520   -3.8857388 
H     2.9447725   -2.9261708   -5.0008589 
C    -2.7903821    3.3986169   -4.3123779 
H    -2.5567073    4.3313000   -4.8540554 
H    -2.0998476    2.6134639   -4.6633576 
H    -3.8154753    3.1016729   -4.6071530 
C    -3.8896763    6.0991172   -0.1540721 
H    -4.8705392    5.8110672    0.2701126 
H    -3.2786232    6.4946553    0.6754545 
H    -4.0633745    6.9129821   -0.8769110 
C     2.7107896    2.0261796   -3.4619978 
H     3.7716544    2.2852280   -3.6143001 
H     2.5959826    0.9382322   -3.6008402 
H     2.1295139    2.5320658   -4.2562757 
C     2.9853235    5.1485026    0.5476847 
H     3.7462387    4.7610753    1.2522400 
H     3.4963026    5.8327556   -0.1498405 
H     2.2583652    5.7316720    1.1381458 
