106
Energy =
C    -3.1228031   -0.8699545   -1.4106924 
C    -3.0836948   -1.7018738   -0.2584168 
C    -2.9831780   -1.1259474    1.0368924 
H    -2.9563544   -2.7845625   -0.3792468 
Pd   -1.2424484   -0.4886133   -0.2543489 
P     0.4137822    0.0648800    1.2994812 
P    -0.0883663    0.3936881   -2.0613430 
H    -3.5286459    0.1438030   -1.2764427 
H    -3.3214161   -0.0827997    1.1384947 
C    -3.0260865   -2.1147338   -5.5278260 
C    -3.4591880   -0.8285667   -5.1766413 
C    -3.4897714   -0.4407424   -3.8316978 
C    -3.0831705   -1.3300164   -2.8106576 
C    -2.6355993   -2.6193931   -3.1815015 
C    -2.6159918   -3.0079733   -4.5236695 
H    -3.0049948   -2.4221421   -6.5784212 
H    -3.7819957   -0.1251836   -5.9513313 
H    -3.8339569    0.5635474   -3.5630158 
H    -2.2853792   -3.3191683   -2.4158153 
H    -2.2697181   -4.0110273   -4.7923113 
C    -2.7842744   -3.1649507    4.8153567 
C    -2.6858814   -1.7667879    4.7452903 
C    -2.7475771   -1.1218111    3.5069982 
C    -2.8985314   -1.8595671    2.3094282 
C    -2.9837895   -3.2680788    2.3945189 
C    -2.9370691   -3.9109085    3.6361135 
H    -2.7435686   -3.6717560    5.7848676 
H    -2.5589640   -1.1779202    5.6591428 
H    -2.6653491   -0.0301349    3.4561563 
H    -3.1144612   -3.8683302    1.4882969 
H    -3.0213539   -5.0013854    3.6846765 
Fe    3.3695765    1.1688581   -2.2251712 
C     1.4406240    1.2839292   -1.6400331 
C     2.2970581    1.0147072   -0.4916900 
C     3.2386745    2.0998110   -0.4116373 
C     2.9786129    3.0254570   -1.4733226 
C     1.8753968    2.5292858   -2.2377137 
C     5.3506222    1.0594003   -2.7211649 
C     4.8685223   -0.2284527   -2.3137794 
C     3.7832540   -0.5917691   -3.1801216 
C     3.5988579    0.4717642   -4.1282489 
C     4.5681626    1.4905970   -3.8446303 
C     2.1438888   -0.0846996    0.5317078 
H     4.0361143    2.1831712    0.3297965 
H     3.5499176    3.9299944   -1.6896919 
H     1.4333969    2.9949184   -3.1199336 
H     6.1554377    1.6228564   -2.2454838 
H     5.2602952   -0.8186833   -1.4835095 
H     3.1934598   -1.5077158   -3.1269735 
H     2.8401039    0.5047646   -4.9108755 
H     4.6724385    2.4418322   -4.3700178 
H     2.8529079    0.1114546    1.3553157 
C     2.3723975   -1.5128744    0.0119760 
H     3.3880154   -1.5852659   -0.4064994 
H     2.2812139   -2.2505383    0.8261324 
H     1.6558851   -1.7737261   -0.7841335 
C    -1.0918324    1.6576613   -2.8793291 
C    -2.0256271    2.5255131   -2.3510136 
C    -2.4548287    3.3706069   -3.4244006 
C    -1.7528984    2.9653068   -4.5324796 
H    -2.3553113    2.5534846   -1.3126531 
H    -3.1922179    4.1722522   -3.3816713 
H    -1.7348979    3.2858225   -5.5732716 
O    -0.9138795    1.9364804   -4.2154008 
C     0.2471573   -0.8305787   -3.3540545 
C     0.2997573   -0.8316074   -4.7322279 
C     0.6892185   -2.1517314   -5.1247547 
C     0.8448874   -2.8698014   -3.9658911 
H     0.0763661    0.0156520   -5.3770002 
H     0.8257311   -2.5223915   -6.1407289 
H     1.1187718   -3.9008172   -3.7473229 
O     0.5750501   -2.0862038   -2.8823710 
C     0.0035784    4.5473666    2.3647783 
C     1.2323000    3.9122143    2.6291706 
C     1.3569556    2.5434694    2.3285603 
C     0.2787329    1.8286567    1.7730400 
C    -0.9381704    2.4913080    1.5257238 
C    -1.0929034    3.8585211    1.8133897 
H    -0.1012483    5.6145921    2.5956250 
H     2.3083073    2.0398923    2.5315287 
H    -1.7750867    1.9272387    1.0945295 
C     0.7096543   -2.5344490    5.1047617 
C     0.4969026   -3.1445488    3.8542701 
C     0.3729087   -2.3181369    2.7247777 
C     0.5073923   -0.9194639    2.8372324 
C     0.7050046   -0.3338787    4.1022791 
C     0.8017147   -1.1376161    5.2522708 
H     0.7886330   -3.1685547    5.9963820 
H     0.1536146   -2.7673044    1.7485039 
H     0.7715333    0.7546441    4.2003203 
C     2.4042990    4.6902359    3.1850286 
H     3.0955486    4.0375187    3.7440688 
H     2.9797938    5.1583453    2.3639495 
H     2.0710348    5.4995184    3.8559149 
C    -2.3878011    4.5761092    1.5022494 
H    -2.2965216    5.1510874    0.5612346 
H    -3.2247741    3.8673938    1.3829446 
H    -2.6542792    5.2928358    2.2974519 
C     0.4153396   -4.6487753    3.7295721 
H     1.4281728   -5.0936063    3.7172944 
H    -0.1289170   -5.0921727    4.5802835 
H    -0.0962525   -4.9473873    2.7999606 
C     0.9702749   -0.5190662    6.6225017 
H     1.7835047   -1.0086945    7.1862668 
H     1.1944400    0.5582375    6.5573195 
H     0.0458294   -0.6358444    7.2187539 
