132
Energy =
C     1.2533139   -0.9236563   -3.2906666 
C     1.5853884    0.4210503   -2.9702714 
C     2.4898157    0.7630793   -1.9368231 
H     1.0184369    1.2277303   -3.4526232 
Pd    0.7472265   -0.4609290   -1.1258486 
P     0.4972181    0.6101793    0.9215140 
P    -0.7869570   -2.1641566   -0.5796084 
H     2.0089276   -1.6974544   -3.0890089 
H     3.2327207    0.0065055   -1.6407484 
C    -1.6581682   -1.9831901   -6.2931817 
C    -1.7353679   -0.7351635   -5.6520309 
C    -0.7960083   -0.3820134   -4.6789557 
C     0.2516715   -1.2633376   -4.3223732 
C     0.3257862   -2.5065930   -4.9912686 
C    -0.6198731   -2.8656094   -5.9610269 
H    -2.3986739   -2.2610465   -7.0499845 
H    -2.5410826   -0.0379633   -5.9050939 
H    -0.8935579    0.5822211   -4.1695225 
H     1.1446648   -3.1934551   -4.7533441 
H    -0.5385650   -3.8343860   -6.4649176 
C     3.5931327    4.7826467   -0.8594458 
C     4.4334057    3.7016754   -0.5580129 
C     4.0534648    2.3999176   -0.9055857 
C     2.8276030    2.1485009   -1.5609310 
C     1.9860521    3.2494176   -1.8468051 
C     2.3661978    4.5497689   -1.5022774 
H     3.8872937    5.8010223   -0.5860928 
H     5.3818878    3.8715058   -0.0388035 
H     4.7169289    1.5608309   -0.6714902 
H     1.0210716    3.0927929   -2.3382105 
H     1.7006461    5.3878441   -1.7345144 
Fe    0.7521835   -1.6101494    3.7616007 
C    -0.0470453   -0.4150165    2.3177936 
C    -0.6067172   -1.7605628    2.2660745 
C    -1.2332258   -1.9993001    3.5446923 
C    -1.0356557   -0.8563947    4.3855316 
C    -0.2891985    0.1135107    3.6465795 
C     1.8552929   -3.3342757    3.7825562 
C     2.6432971   -2.2386017    3.3002770 
C     2.6784340   -1.2281913    4.3251043 
C     1.9143505   -1.7069842    5.4394885 
C     1.4006718   -3.0046885    5.1039529 
C    -0.9088164    1.7691402    0.6253082 
C    -1.7444198    2.2575014    1.6489378 
C    -2.8723760    3.0398320    1.3543859 
C    -3.1508334    3.3412566   -0.0003522 
C    -2.3331698    2.8677066   -1.0511140 
C    -1.2187923    2.0858657   -0.7107385 
C     1.8595451    1.6176029    1.6052491 
C     1.7334019    2.9939339    1.8501401 
C     2.8096187    3.7372234    2.3693348 
C     4.0166072    3.0587221    2.6474363 
C     4.1784506    1.6781950    2.3819221 
C     3.0900891    0.9778054    1.8469045 
C    -0.4669646   -2.8038134    1.1641457 
H    -1.7343001   -2.9171022    3.8526967 
H    -1.3578047   -0.7670649    5.4245810 
H     0.0557177    1.0843632    4.0081598 
H     1.6292774   -4.2528013    3.2368820 
H     3.1278571   -2.1871774    2.3233650 
H     3.1804727   -0.2625025    4.2618351 
H     1.7271289   -1.1651017    6.3683142 
H     0.7564578   -3.6219165    5.7329896 
H    -1.5490488    1.9987712    2.6927673 
H    -0.6009458    1.6624249   -1.5123536 
H     0.7964854    3.5087378    1.6127883 
H     3.2046736   -0.0821206    1.5976941 
H     0.6102548   -3.0405792    1.0901340 
H    -0.3544437   -3.1342377   -2.6790356 
H    -3.1063430   -2.8025767   -0.7314151 
C    -4.3589111   -0.8503215   -2.3370225 
C    -2.8664571   -1.1492457   -2.1176995 
C    -2.6126955   -1.8116998   -0.7466065 
C    -3.1969398   -0.9646425    0.4026456 
C    -4.6920318   -0.6779057    0.1684539 
C    -4.9371460   -0.0042983   -1.1912683 
H    -4.9144757   -1.8062095   -2.4074564 
H    -4.4901812   -0.3375401   -3.3074824 
H    -2.2912617   -0.2045284   -2.1542514 
H    -2.4802357   -1.7830633   -2.9349683 
H    -3.0590692   -1.4760184    1.3705175 
H    -2.6510342   -0.0083296    0.4683389 
H    -5.2588605   -1.6290912    0.2151248 
H    -5.0721987   -0.0414537    0.9878301 
H    -4.4575646    0.9930199   -1.1905115 
H    -6.0178389    0.1640188   -1.3459452 
C    -1.0446471   -6.0707436   -2.2382611 
C    -1.6071633   -4.6826768   -1.8546187 
C    -0.4675878   -3.6320851   -1.7004604 
C     0.8941628   -4.2875920   -1.3758862 
C     1.3425730   -5.2413545   -2.5110591 
C     0.1411692   -5.9314140   -3.2046169 
H    -1.8492667   -6.6809456   -2.6840545 
H    -0.7152244   -6.6097218   -1.3287129 
H    -2.2167377   -4.7754581   -0.9404624 
H    -2.2917645   -4.3310787   -2.6469248 
H     1.6621407   -3.5087990   -1.2047140 
H     0.8138472   -4.8548513   -0.4311486 
H     1.9372808   -4.6837741   -3.2569909 
H     2.0220838   -6.0003365   -2.0842160 
H     0.4454022   -6.9161670   -3.5986905 
H    -0.1865797   -5.3335607   -4.0764057 
C    -1.2180583   -4.1009976    1.5125192 
H    -0.8832446   -4.4681573    2.4978934 
H    -2.3090526   -3.9433426    1.5582070 
H    -1.0116401   -4.8968473    0.7827212 
C    -3.8079713    3.5249235    2.4360919 
H    -3.5621371    3.0686435    3.4083087 
H    -3.7531713    4.6229820    2.5514559 
H    -4.8536553    3.2848155    2.1787780 
C    -2.6822835    3.1451081   -2.4946165 
H    -2.3424836    2.3212732   -3.1447675 
H    -3.7713352    3.2636632   -2.6148482 
H    -2.2018577    4.0733084   -2.8572309 
O    -4.3105249    4.0243519   -0.2886396 
C    -4.1757720    5.4350026   -0.5159084 
H    -5.1906021    5.8158661   -0.7031331 
H    -3.7484673    5.9419626    0.3698472 
H    -3.5365272    5.6453814   -1.3940585 
C     2.6978391    5.2297542    2.5695678 
H     2.3540923    5.4791239    3.5911947 
H     3.6774174    5.7124196    2.4197461 
H     1.9742269    5.6642977    1.8605438 
C     5.5178869    1.0203591    2.6118396 
H     5.8254095    1.0860155    3.6706491 
H     5.4916197   -0.0445809    2.3287929 
H     6.3055299    1.5257133    2.0250375 
O     5.1263466    3.7616368    3.0665057 
C     5.1986496    4.0591225    4.4677728 
H     6.1506417    4.5881983    4.6232110 
H     4.3624908    4.7069433    4.7913275 
H     5.1890798    3.1317581    5.0720558 
