106
Energy =
C    -1.7888608   -1.5770086   -2.2592169 
C    -0.5103460   -1.8794791   -2.8279349 
C     0.3361394   -2.8334970   -2.2151301 
H    -0.1201586   -1.2526009   -3.6392573 
Pd   -0.1810557   -1.1349289   -0.7963125 
P     1.9408574   -0.8563155    0.1183891 
P    -1.2208681    0.4214663    0.5890451 
H    -2.3048115   -2.4006626   -1.7445079 
H    -0.1423099   -3.5738939   -1.5548538 
C    -4.3927028    1.5525431   -3.6649105 
C    -3.0095314    1.6412559   -3.8910509 
C    -2.1528910    0.6406126   -3.4233555 
C    -2.6628241   -0.4879796   -2.7396661 
C    -4.0552988   -0.5574690   -2.5091752 
C    -4.9107575    0.4537749   -2.9629001 
H    -5.0611279    2.3395173   -4.0287305 
H    -2.5939749    2.5046399   -4.4202888 
H    -1.0730435    0.7477941   -3.5725735 
H    -4.4692648   -1.4207366   -1.9780616 
H    -5.9872202    0.3775789   -2.7773832 
C     4.3847173   -3.8485006   -3.2403405 
C     3.6621196   -4.6165284   -2.3159731 
C     2.3418903   -4.2760927   -2.0028042 
C     1.7140910   -3.1638857   -2.6086895 
C     2.4532522   -2.4033320   -3.5456166 
C     3.7732776   -2.7427130   -3.8554205 
H     5.4184485   -4.1121358   -3.4869986 
H     4.1285621   -5.4805440   -1.8322824 
H     1.7857065   -4.8722106   -1.2709024 
H     1.9981420   -1.5364955   -4.0326877 
H     4.3287357   -2.1414002   -4.5821327 
Fe    2.6996725    0.5025228    3.3228003 
C     2.1066307    0.4235839    1.4010236 
C     1.0244253    0.9387643    2.2316651 
C     1.5220634    2.1197652    2.8839876 
C     2.8747761    2.3483003    2.4684156 
C     3.2435666    1.3096283    1.5543609 
C     4.3541162    0.3047469    4.5002942 
C     3.2073036    0.6244616    5.3017520 
C     2.2275070   -0.4035424    5.1027418 
C     2.7644525   -1.3565546    4.1733770 
C     4.0813648   -0.9185543    3.8020831 
C    -0.3910319    0.4279917    2.2988305 
H     0.9578848    2.7273965    3.5942090 
H     3.5254912    3.1514075    2.8190869 
H     4.2071402    1.1921088    1.0556858 
H     5.2617451    0.9050034    4.4132271 
H     3.0914044    1.5070599    5.9334149 
H     1.2444418   -0.4416252    5.5751099 
H     2.2616683   -2.2499950    3.8005423 
H     4.7442890   -1.4196850    3.0958477 
H    -0.9858128    1.1299219    2.9090973 
C    -0.5291297   -0.9965658    2.8696129 
H    -0.1759174   -1.0059804    3.9116402 
H    -1.5785808   -1.3362008    2.8523118 
H     0.0817238   -1.7157274    2.2964991 
C     2.9718424   -0.1978726   -1.2162728 
C     2.6300287    0.6766355   -2.2288552 
C     3.8373967    0.9665085   -2.9416898 
C     4.8301129    0.2513350   -2.3180628 
H     1.6279943    1.0608609   -2.4254683 
H     3.9539065    1.6147519   -3.8102758 
H     5.8984064    0.1324157   -2.4931848 
O     4.3225322   -0.4490561   -1.2620322 
C     2.7797518   -2.3576289    0.6723260 
C     4.0787130   -2.8171839    0.7079246 
C     4.0363239   -4.1109380    1.3199514 
C     2.7183128   -4.3548367    1.6175560 
H     4.9490419   -2.2902463    0.3213770 
H     4.8774013   -4.7779811    1.5104536 
H     2.1910195   -5.1862838    2.0832283 
O     1.9406303   -3.3036295    1.2276176 
C    -0.8863452    4.5298436   -1.5174846 
C     0.2742233    3.9203945   -1.0058897 
C     0.1450509    2.6945695   -0.3297786 
C    -1.1184020    2.0918112   -0.1581582 
C    -2.2608743    2.7096460   -0.7066065 
C    -2.1575476    3.9414876   -1.3781815 
H    -0.7968908    5.4863248   -2.0473038 
H     1.0466541    2.2142523    0.0575609 
H    -3.2397890    2.2257735   -0.6328044 
C    -5.5998920   -0.3303468    1.8691794 
C    -5.0191601    0.9230106    2.1493594 
C    -3.6955389    1.1531210    1.7356449 
C    -2.9728061    0.1534275    1.0524077 
C    -3.5712214   -1.0935232    0.8069343 
C    -4.8958576   -1.3510860    1.2059627 
H    -6.6343167   -0.5165822    2.1833697 
H    -3.2312789    2.1248606    1.9405716 
H    -2.9941265   -1.8753341    0.3018248 
C     1.6337649    4.5694187   -1.1475428 
H     2.4365967    3.8131233   -1.1841990 
H     1.6938128    5.1909986   -2.0567211 
H     1.8417099    5.2277392   -0.2829671 
C    -3.3860565    4.6223103   -1.9397339 
H    -3.2614888    4.8461949   -3.0143448 
H    -4.2832529    3.9939014   -1.8230418 
H    -3.5698514    5.5842531   -1.4272056 
C    -5.7995721    1.9837588    2.8938500 
H    -5.9134708    1.7095569    3.9590770 
H    -5.2963662    2.9634645    2.8496012 
H    -6.8155456    2.0970193    2.4773019 
C    -5.5560500   -2.6758493    0.8938300 
H    -4.8101608   -3.4606182    0.6839295 
H    -6.1925398   -3.0168692    1.7278204 
H    -6.2069117   -2.5859091    0.0032514 
