110
Energy =
C    -2.0224752   -0.0311967   -2.1912582 
C    -0.7876549    0.0516313   -2.8983491 
C     0.0938978   -1.0464677   -2.9407057 
H    -0.4955905    0.9981104   -3.3700297 
Pd   -0.2975060   -0.2266100   -0.7532078 
P     1.8867374   -0.3857356    0.1372606 
P    -1.6072180    0.0597596    1.2252993 
H    -2.4601412   -1.0335413   -2.0943438 
H    -0.3187875   -2.0223154   -2.6461688 
C    -4.8831645    3.1769587   -1.9973981 
C    -3.5138220    3.4691000   -2.1221011 
C    -2.5751456    2.4349847   -2.1891668 
C    -2.9870052    1.0816612   -2.1415678 
C    -4.3686627    0.8028478   -2.0314934 
C    -5.3069859    1.8401157   -1.9564960 
H    -5.6150334    3.9887062   -1.9362372 
H    -3.1779193    4.5107710   -2.1535616 
H    -1.5077029    2.6762145   -2.2383700 
H    -4.7063269   -0.2395868   -2.0093083 
H    -6.3725609    1.6045243   -1.8690660 
C     3.4704252   -1.4033174   -5.5720374 
C     2.7834529   -2.5395568   -5.1194405 
C     1.7206537   -2.4034551   -4.2194923 
C     1.3018423   -1.1270309   -3.7748171 
C     2.0061364    0.0096101   -4.2396264 
C     3.0820260   -0.1298340   -5.1218160 
H     4.3061203   -1.5075051   -6.2713314 
H     3.0810777   -3.5352790   -5.4628038 
H     1.1855260   -3.2943168   -3.8720570 
H     1.7104263    1.0100606   -3.9120248 
H     3.6159274    0.7601967   -5.4704375 
Fe    0.9300802   -0.6183895    3.3593322 
C    -0.7487428    0.3456493    2.8202044 
C     0.3290550    1.2874408    3.0420476 
H     0.7282363    1.9824751    2.3065771 
C     0.7895351    1.1516581    4.3906330 
H     1.6111499    1.7102394    4.8420699 
C     0.0080685    0.1356666    5.0275792 
H     0.1286253   -0.2233528    6.0511525 
C    -0.9378941   -0.3647460    4.0748049 
C     1.9771514   -1.2111499    1.7554829 
C     1.0580536   -2.2474182    2.1790591 
H     0.2551894   -2.6634628    1.5698475 
C     1.3787740   -2.6117283    3.5263737 
H     0.8461259   -3.3444365    4.1350858 
C     2.4913747   -1.8141001    3.9509804 
H     2.9540140   -1.8328944    4.9393654 
C     2.8697785   -0.9551648    2.8679679 
H    -1.6521753   -1.1645675    4.2705412 
H     3.6777798   -0.2226469    2.8973746 
C     2.7555364    1.2715638    0.4624863 
C     4.1930856    1.1214032   -0.1053966 
C     4.5463606   -0.3683879   -0.2350824 
C     3.3259899   -1.0708978   -0.8642871 
H     2.7999882    1.3161043    1.5645479 
H     4.2408728    1.5816087   -1.1080066 
H     4.9177455    1.6596952    0.5290484 
H     5.4459735   -0.5087340   -0.8591575 
H     4.7701030   -0.8079112    0.7541026 
H     3.1489898   -0.6070680   -1.8562488 
C    -2.6859349   -1.4371380    1.6705263 
C    -3.8432581   -0.7606673    2.4419142 
C    -4.3006696    0.4479410    1.6181907 
C    -3.0633429    1.2965443    1.2152793 
H    -2.0849151   -2.0858015    2.3335589 
H    -4.6663094   -1.4678453    2.6381222 
H    -3.4849859   -0.4151588    3.4268686 
H    -4.8098236    0.1044226    0.7001497 
H    -5.0346609    1.0540640    2.1723976 
H    -3.1712826    1.6079998    0.1653275 
C    -2.7826409    2.5842330    2.0358708 
H    -2.4255105    2.2987248    3.0439135 
C    -3.1250748   -2.2794942    0.4386180 
H    -3.4589025   -1.5800822   -0.3513281 
C     1.9828897    2.5313653   -0.0086856 
C     3.4397534   -2.5980819   -1.1056509 
H     2.4776172   -2.9165483   -1.5522157 
H     0.9666340    2.4548497    0.4219375 
C    -1.6906463    3.4120986    1.3339741 
H    -1.3108680    4.2165234    1.9865805 
H    -0.8341548    2.7865451    1.0279467 
H    -2.0938731    3.8710880    0.4144628 
C    -4.0457150    3.4512446    2.2045772 
H    -3.7817663    4.4110507    2.6818328 
H    -4.5021666    3.6729610    1.2222041 
H    -4.8081152    2.9689724    2.8386587 
C    -4.3113757   -3.2095939    0.7584689 
H    -4.0834743   -3.8611044    1.6220626 
H    -5.2341735   -2.6501036    0.9840522 
H    -4.5242035   -3.8614112   -0.1065138 
C    -1.9529074   -3.1068868   -0.1128286 
H    -2.2325030   -3.6195027   -1.0499488 
H    -1.0705760   -2.4670048   -0.3268761 
H    -1.6431976   -3.8796836    0.6143837 
C     3.6936098   -3.4565886    0.1468957 
H     3.8473134   -4.5081242   -0.1521407 
H     4.6039974   -3.1311513    0.6808242 
H     2.8567901   -3.4305876    0.8598332 
C     4.5510011   -2.8625703   -2.1437810 
H     4.4630322   -2.1945462   -3.0161478 
H     5.5502284   -2.7156838   -1.6962692 
H     4.5010511   -3.9040177   -2.5058368 
C     1.7936066    2.6169058   -1.5290625 
H     1.1494904    3.4747009   -1.7890840 
H     2.7501433    2.7431696   -2.0656401 
H     1.3032286    1.6998337   -1.9029313 
C     2.6361541    3.8065649    0.5525311 
H     2.0383566    4.6976564    0.2932348 
H     2.7221570    3.7621355    1.6533663 
H     3.6506029    3.9518301    0.1400449 
