124
Energy =
C    -0.3369222   -2.2689795   -2.1798890 
C     0.5401533   -1.4003200   -2.8917018 
C     1.8606009   -1.1494022   -2.4542294 
H     0.1380293   -0.8151913   -3.7280018 
Pd    0.3009506   -0.5433306   -0.8700185 
P     1.2926912    1.2611529    0.2435556 
P    -1.2445195   -0.7015766    0.8594594 
H     0.1253553   -3.0889248   -1.6120572 
H     2.2897684   -1.8549173   -1.7257377 
C    -4.3764891   -3.0835929   -3.4188729 
C    -3.6490163   -4.0279906   -2.6810400 
C    -2.3467113   -3.7391953   -2.2564505 
C    -1.7353695   -2.5067663   -2.5767199 
C    -2.4888052   -1.5564237   -3.3058366 
C    -3.7926273   -1.8426011   -3.7234015 
H    -5.3973701   -3.3072862   -3.7424197 
H    -4.1034270   -4.9899387   -2.4252329 
H    -1.7863082   -4.4810149   -1.6776326 
H    -2.0474646   -0.5825855   -3.5467290 
H    -4.3582254   -1.0940609   -4.2886257 
C     4.8449454    1.1805330   -4.4939955 
C     3.5961668    0.9689040   -5.0991879 
C     2.6050836    0.2377293   -4.4371917 
C     2.8486474   -0.3205865   -3.1601507 
C     4.1170268   -0.1079821   -2.5710676 
C     5.1001065    0.6403305   -3.2244003 
H     5.6171823    1.7577754   -5.0126038 
H     3.3941103    1.3755699   -6.0953395 
H     1.6438359    0.0743556   -4.9346650 
H     4.3294063   -0.5344500   -1.5850795 
H     6.0703907    0.8001583   -2.7435595 
Fe   -3.1543749    2.2569757    0.2435734 
C    -1.9928739    0.9103098    1.2237219 
C    -1.3263157    2.2084825    1.1197226 
C    -2.1812596    3.1650064    1.7812322 
C    -3.3528360    2.4971774    2.2627051 
C    -3.2475196    1.1135053    1.9230315 
C    -3.4739534    3.8097948   -1.0328540 
C    -2.8469847    2.7178503   -1.7225508 
C    -3.7047895    1.5736068   -1.6146452 
C    -4.8598452    1.9525035   -0.8506790 
C    -4.7176504    3.3348634   -0.4910128 
C    -0.0386088    2.5966858    0.4050728 
H    -1.9901074    4.2345596    1.8672067 
H    -4.1932726    2.9709171    2.7728471 
H    -3.9722299    0.3311992    2.1538637 
H    -3.0707042    4.8182339   -0.9216513 
H    -1.8854473    2.7485869   -2.2402359 
H    -3.5024807    0.5855884   -2.0302116 
H    -5.6926203    1.3037542   -0.5734873 
H    -5.4213918    3.9182707    0.1052658 
H    -0.2770162    2.6179776   -0.6741876 
C     0.4546311    4.0095681    0.7668967 
H    -0.2889523    4.7507515    0.4267377 
H     0.5929170    4.1366254    1.8502212 
H     1.4050735    4.2367659    0.2601581 
C     3.8956410   -0.4586343    3.7134185 
C     3.9973550   -0.8522150    2.3671618 
C     3.1627609   -0.2816769    1.4061818 
C     2.2165329    0.7171119    1.7373668 
C     2.0913175    1.1228824    3.0896124 
C     2.9379621    0.5166794    4.0387096 
H     4.7095049   -1.6301042    2.0736259 
H     3.2331769   -0.6231533    0.3677378 
H     2.8265500    0.8153393    5.0878981 
C     4.2034076    3.8467706   -2.2457295 
C     4.6365892    3.3968770   -0.9859732 
C     3.7729129    2.5804250   -0.2305281 
C     2.5193165    2.2039387   -0.7429265 
C     2.1285193    2.6337629   -2.0272546 
C     2.9523032    3.4830883   -2.7823956 
H     4.8632578    4.4954779   -2.8345255 
H     4.0804753    2.2450862    0.7654008 
H     1.1681006    2.3049602   -2.4449859 
C     4.7635480   -1.0735539    4.7854501 
H     5.2682474   -1.9839546    4.4236769 
H     5.5424416   -0.3623417    5.1179603 
H     4.1648953   -1.3382217    5.6748982 
C     1.1110071    2.1621116    3.5775184 
H     0.1514986    2.1168371    3.0407342 
H     0.9003180    2.0169624    4.6490804 
H     1.5261797    3.1797833    3.4585691 
C     6.0105476    3.7555380   -0.4654962 
H     6.0562911    3.6961403    0.6346256 
H     6.7688688    3.0563794   -0.8673528 
H     6.3075031    4.7723150   -0.7730786 
C     2.5031023    4.0147055   -4.1241961 
H     3.3374273    4.0400387   -4.8449534 
H     1.6970901    3.3969424   -4.5529673 
H     2.1223213    5.0486547   -4.0239829 
C     0.7024074   -1.8414763    4.9787263 
C    -0.3057844   -0.8982740    4.8984460 
C    -0.8738469   -0.5666010    3.6434327 
C    -0.4395310   -1.1745409    2.4674567 
H     1.1491048   -2.0986446    5.9453408 
H    -0.6717726   -0.3976946    5.8005275 
H    -1.6616703    0.1905224    3.6084706 
C     0.5984870   -2.1724564    2.5247395 
C     1.1748725   -2.5004118    3.8077566 
C     2.2053255   -3.4837196    3.8781267 
C     2.6539214   -4.1366882    2.7421275 
C     2.0803997   -3.8293119    1.4819303 
C     1.0808191   -2.8750044    1.3828785 
H     2.6363928   -3.7186427    4.8573701 
H     3.4428476   -4.8922445    2.8143484 
H     2.4277021   -4.3502966    0.5831714 
H     0.6429119   -2.6437598    0.4055574 
C    -3.8015256   -1.5285470    0.0688121 
C    -2.6311046   -1.8920509    0.7272733 
C    -2.4988562   -3.2154703    1.2504171 
C    -3.5341813   -4.1236306    1.1163555 
H    -3.9059406   -0.5154778   -0.3207125 
H    -1.5858362   -3.5124463    1.7738594 
H    -3.4274278   -5.1335949    1.5272851 
C    -4.7484651   -3.7730656    0.4568807 
C    -4.8830348   -2.4401651   -0.0731840 
C    -6.0890140   -2.0792716   -0.7430752 
C    -7.1182463   -2.9951229   -0.8864405 
C    -6.9839468   -4.3116207   -0.3671207 
C    -5.8248883   -4.6919589    0.2916783 
H    -6.1825501   -1.0701398   -1.1582024 
H    -8.0394921   -2.7097531   -1.4049107 
H    -7.8045897   -5.0263552   -0.4882946 
H    -5.7230412   -5.7059898    0.6937739 
