98
Energy =
C     2.0295105   -2.2355433   -0.2930557 
C     2.1776391   -1.4558295   -1.4555046 
C     2.7684291   -0.1549688   -1.4337769 
H     1.7636099   -1.8318941   -2.3993028 
Pd    0.8968519   -0.1925673   -0.1661448 
P     0.5400655    2.1368010    0.3203207 
P    -1.1606876   -1.1682865    0.5787890 
H     2.6164778   -1.9404287    0.5903392 
H     3.5420745    0.0312836   -0.6762846 
C     0.6306683   -6.2906315   -0.1113553 
C     1.3936272   -5.7441295    0.9312177 
C     1.8171977   -4.4130710    0.8653625 
C     1.5001720   -3.6040664   -0.2507055 
C     0.7286868   -4.1698026   -1.2935870 
C     0.2961373   -5.4963318   -1.2210132 
H     0.2948882   -7.3314600   -0.0600581 
H     1.6544272   -6.3545332    1.8012121 
H     2.4092798   -3.9894645    1.6831859 
H     0.4580786   -3.5717593   -2.1673039 
H    -0.3026589   -5.9155711   -2.0360166 
C     3.1023890    2.1414149   -5.0731189 
C     2.0054097    1.2862968   -4.8797209 
C     1.8922668    0.5448618   -3.6993438 
C     2.8702181    0.6373023   -2.6796276 
C     3.9790587    1.4849421   -2.9021903 
C     4.0913226    2.2313159   -4.0817523 
H     3.1892310    2.7273726   -5.9936549 
H     1.2311690    1.2032838   -5.6495042 
H     1.0208487   -0.1040333   -3.5597530 
H     4.7682814    1.5500401   -2.1461933 
H     4.9602394    2.8805884   -4.2308973 
Fe   -2.0825466    1.3664563    2.5724169 
C    -0.4213211    2.2590951    1.8815581 
C    -0.1211954    1.3322997    2.9596218 
H     0.5359111    0.4660742    2.8674679 
C    -0.8236942    1.7406157    4.1378355 
H    -0.8238137    1.2185372    5.0961587 
C    -1.5691855    2.9196142    3.8156424 
H    -2.2414770    3.4585566    4.4859517 
C    -1.3235881    3.2509294    2.4436504 
C    -2.4710079   -0.2771644    1.5006719 
C    -3.2540554    0.8388363    1.0079665 
H    -3.2369541    1.2406283   -0.0045074 
C    -4.0775763    1.3144968    2.0786355 
H    -4.7636304    2.1615874    2.0252478 
C    -3.8237836    0.5043083    3.2323672 
H    -4.2767343    0.6294946    4.2174093 
C    -2.8435908   -0.4822142    2.8851554 
C    -2.1171517   -1.7364895   -0.8911320 
C    -1.5287756   -1.7117737   -2.1695529 
H    -0.4991269   -1.3540213   -2.2726662 
C    -2.2539910   -2.1152904   -3.2984957 
H    -1.7845520   -2.0875909   -4.2875000 
C    -3.5820519   -2.5446793   -3.1588155 
H    -4.1525364   -2.8589732   -4.0388866 
C    -4.1847908   -2.5557442   -1.8907815 
H    -5.2258841   -2.8764646   -1.7808263 
C    -3.4621366   -2.1466942   -0.7619074 
H    -3.9468601   -2.1364030    0.2202211 
C    -0.9391593   -2.6324402    1.6774532 
C    -0.0931448   -2.4807354    2.7960192 
H     0.4749441   -1.5537175    2.9260425 
C     0.0257343   -3.5069199    3.7423994 
H     0.6758431   -3.3717975    4.6131468 
C    -0.6784509   -4.7074550    3.5648157 
H    -0.5844981   -5.5133181    4.2999773 
C    -1.4860041   -4.8797267    2.4314802 
H    -2.0143222   -5.8252994    2.2723006 
C    -1.6220679   -3.8480669    1.4911497 
H    -2.2509790   -3.9996806    0.6095758 
H    -1.7655049    4.0999059    1.9270921 
H    -2.4289386   -1.2406169    3.5502825 
C     2.0625730    3.2046100    0.8673849 
C    -0.4130585    2.9707383   -1.1345438 
C     2.6114050    2.5808406    2.1734254 
H     3.5805804    3.0584439    2.4052050 
H     1.9442924    2.7407992    3.0339155 
H     2.7907688    1.4955392    2.0589903 
C     3.2037460    3.1509255   -0.1632242 
H     4.0334201    3.7844504    0.2006025 
H     3.5869390    2.1250696   -0.2555766 
H     2.9246082    3.5077722   -1.1622599 
C     1.6386912    4.6632681    1.1371962 
H     2.5032034    5.2115602    1.5551341 
H     1.3313622    5.1874117    0.2179018 
H     0.8199420    4.7245768    1.8730347 
C    -1.4499168    4.0122195   -0.6721125 
H    -1.9219625    4.4581794   -1.5667820 
H    -2.2466350    3.5472673   -0.0697532 
H    -0.9939830    4.8323907   -0.0945174 
C     0.5736586    3.6242240   -2.1265734 
H     0.0025941    3.9407877   -3.0183724 
H     1.0588883    4.5213686   -1.7116414 
H     1.3476082    2.9184992   -2.4678587 
C    -1.1387967    1.8342155   -1.8881835 
H    -1.7582286    2.2680570   -2.6946103 
H    -0.4161598    1.1420307   -2.3484580 
H    -1.7978007    1.2454651   -1.2335264 
