124
Energy =
C     1.4545081   -3.1821523   -0.3184300 
C     1.9291036   -2.3724870   -1.3780093 
C     2.9156039   -1.3693101   -1.1753226 
H     1.4174007   -2.4221149   -2.3465831 
Pd    1.0980434   -0.9499605    0.1004350 
P     1.4660938    1.3013520    0.5581008 
P    -0.9308133   -1.0681040    1.2239589 
H     2.0898288   -3.2629892    0.5765738 
H     3.6047105   -1.5041794   -0.3294410 
C    -1.4759862   -6.3235992   -0.6266181 
C    -0.8564986   -6.0354180    0.6001310 
C     0.1016382   -5.0192939    0.6804020 
C     0.4419147   -4.2437233   -0.4536403 
C    -0.1910703   -4.5479037   -1.6814428 
C    -1.1272388   -5.5835190   -1.7676685 
H    -2.2168338   -7.1268000   -0.6954475 
H    -1.1129801   -6.6094431    1.4964120 
H     0.5905842   -4.8152484    1.6372340 
H     0.0483273   -3.9761453   -2.5829161 
H    -1.5954821   -5.8083085   -2.7315289 
C     4.4252158    1.3210629   -4.1831320 
C     3.2346884    0.6127721   -4.4205488 
C     2.7279619   -0.2618519   -3.4548785 
C     3.4043660   -0.4581271   -2.2269433 
C     4.6089715    0.2485434   -2.0110672 
C     5.1107160    1.1313568   -2.9749412 
H     4.8176630    2.0078127   -4.9401429 
H     2.6999467    0.7421412   -5.3672919 
H     1.7931581   -0.7946573   -3.6603788 
H     5.1529519    0.1019297   -1.0722342 
H     6.0422788    1.6722063   -2.7782638 
Fe   -2.5654369    2.1610731    1.7664773 
C    -1.5073943    0.4253112    2.1023710 
C    -0.7039343    1.5950276    2.4424023 
C    -1.4361037    2.3341835    3.4409270 
C    -2.6560634    1.6476838    3.7313262 
C    -2.7184545    0.4891598    2.8980683 
C    -4.4912946    2.7172324    1.3516677 
C    -3.7063041    3.8529634    1.7438977 
C    -2.6147286    3.9766557    0.8229509 
C    -2.7250186    2.9175345   -0.1376730 
C    -3.8877363    2.1392308    0.1900332 
C     0.7661348    1.8923725    2.2077075 
H    -1.1048058    3.2724832    3.8919224 
H    -3.4336770    1.9817557    4.4208868 
H    -3.5375754   -0.2284325    2.8738259 
H    -5.3737588    2.3389563    1.8711484 
H    -3.8879726    4.4882802    2.6128957 
H    -1.8353051    4.7369612    0.8591725 
H    -2.0455622    2.7490254   -0.9731119 
H    -4.2464197    1.2577315   -0.3422192 
H     0.8906842    2.9905994    2.1938529 
C     1.5564583    1.3418299    3.4189187 
H     1.0934007    1.7198401    4.3452838 
H     1.5080148    0.2395655    3.4520456 
H     2.6111125    1.6567068    3.4042886 
C     6.1035671    1.6140192    1.2362964 
C     5.2890468    0.5913557    1.7594522 
C     3.9203809    0.5824516    1.4896324 
C     3.2917382    1.5874281    0.7139017 
C     4.1031678    2.6059453    0.1415720 
C     5.4841266    2.5867510    0.4351637 
H     5.7270538   -0.2035906    2.3729980 
H     3.3116644   -0.2405907    1.8839973 
H     6.1071719    3.3731485   -0.0077477 
C    -0.2575957    4.0377752   -2.7444267 
C    -0.0198443    4.6075363   -1.4763336 
C     0.4733393    3.7805894   -0.4538869 
C     0.7288651    2.4168100   -0.6924422 
C     0.4558413    1.8698604   -1.9587224 
C    -0.0319207    2.6745595   -3.0067996 
H    -0.6394580    4.6781602   -3.5489270 
H     0.6691679    4.2170902    0.5310710 
H     0.6333979    0.8030018   -2.1287076 
C     7.5944854    1.6332295    1.4794889 
H     8.0006623    2.6564680    1.4201627 
H     7.8465302    1.2127097    2.4674121 
H     8.1187425    1.0236381    0.7190986 
C     3.6159304    3.6806919   -0.8043622 
H     4.4761682    4.2263462   -1.2230493 
H     3.0434406    3.2530196   -1.6433678 
H     2.9671589    4.4155579   -0.2996821 
C    -0.3058484    6.0721588   -1.2307535 
H    -1.3903117    6.2760062   -1.2958777 
H     0.0414771    6.3923141   -0.2345051 
H     0.1907716    6.7058247   -1.9864243 
C    -0.2647580    2.0954191   -4.3839996 
H     0.6161222    2.2768962   -5.0270779 
H    -0.4313912    1.0068659   -4.3414031 
H    -1.1354291    2.5595151   -4.8767542 
C    -0.7007898   -4.2744014    4.6068729 
C     0.4000682   -3.5634683    4.1627734 
C     0.2483237   -2.6221900    3.1166517 
C    -0.9917943   -2.3665403    2.5281052 
H    -0.5961909   -5.0212023    5.4015231 
H     1.3886590   -3.7343269    4.6003395 
H     1.1318961   -2.0938291    2.7383086 
C    -2.1645873   -3.0523717    3.0106984 
C    -1.9931266   -4.0428050    4.0522648 
C    -3.1285208   -4.7643922    4.5277895 
C    -4.3933851   -4.5204660    4.0225286 
C    -4.5710139   -3.5328205    3.0198509 
C    -3.4879813   -2.8199574    2.5302225 
H    -2.9795214   -5.5144987    5.3122239 
H    -5.2562279   -5.0797745    4.3978982 
H    -5.5727723   -3.3314466    2.6263982 
H    -3.6552405   -2.0724852    1.7515082 
C    -2.2662041   -0.3834542   -1.0695940 
C    -2.0609451   -1.4285968   -0.1714859 
C    -2.5582487   -2.7311887   -0.4746284 
C    -3.2990926   -2.9354128   -1.6265928 
H    -1.8449097    0.6017884   -0.8506177 
H    -2.3557767   -3.5704261    0.1961824 
H    -3.6856602   -3.9360921   -1.8461547 
C    -3.5565165   -1.8778308   -2.5457646 
C    -3.0168446   -0.5700424   -2.2616103 
C    -3.2612203    0.4961471   -3.1791384 
C    -4.0003114    0.2797658   -4.3299794 
C    -4.5289132   -1.0103133   -4.6130373 
C    -4.3133552   -2.0644722   -3.7398373 
H    -2.8589526    1.4892030   -2.9543982 
H    -4.1841742    1.1040388   -5.0271047 
H    -5.1125623   -1.1660483   -5.5262453 
H    -4.7246000   -3.0566234   -3.9563906 
