98
Energy =
C    -0.9272071   -1.9462385   -2.1716027 
C    -0.7337787   -0.7092298   -2.8249295 
C     0.5639911   -0.1284070   -2.9008291 
H    -1.6015278   -0.1458012   -3.1902495 
Pd   -0.0653419   -0.3357467   -0.7489545 
P     1.6211338    1.0906951    0.1114386 
P    -1.2127426   -0.9073758    1.2247754 
H    -0.0355696   -2.5759504   -2.0298246 
H     1.4107878   -0.8275143   -2.8952047 
C    -4.6120101   -4.1449995   -1.9050572 
C    -3.3754047   -4.7951155   -1.7785870 
C    -2.1854222   -4.0610214   -1.8538212 
C    -2.2063863   -2.6645919   -2.0749361 
C    -3.4612663   -2.0253975   -2.2171257 
C    -4.6489499   -2.7571761   -2.1256244 
H    -5.5435672   -4.7161455   -1.8394668 
H    -3.3372207   -5.8775684   -1.6203487 
H    -1.2228196   -4.5735195   -1.7484897 
H    -3.5100928   -0.9467256   -2.3885068 
H    -5.6109771   -2.2453830   -2.2327047 
C     1.4099276    3.6698567   -4.7365876 
C     0.1573864    3.4475357   -4.1382589 
C    -0.1284025    2.2187263   -3.5354667 
C     0.8302563    1.1779831   -3.5293675 
C     2.0852804    1.4151668   -4.1350246 
C     2.3730063    2.6498143   -4.7314589 
H     1.6328535    4.6352932   -5.2018130 
H    -0.5944581    4.2433691   -4.1318402 
H    -1.0932530    2.0726704   -3.0376837 
H     2.8374852    0.6183495   -4.1426625 
H     3.3495151    2.8140395   -5.1984695 
Fe    1.1104595    0.3072991    3.3614644 
C    -0.1375337   -1.0995178    2.6795903 
C    -0.4101501   -0.8217516    4.0764576 
H    -1.3463141   -0.4478842    4.4942659 
C     0.7819385   -1.0920925    4.8258524 
H     0.9032467   -0.9482581    5.9010094 
C     1.7933062   -1.5452284    3.9167435 
H     2.8198716   -1.8071593    4.1787669 
C     1.2343606   -1.5580891    2.5975437 
C     1.6198010    1.5562982    1.8801838 
C     2.6995641    1.4511397    2.8454520 
H     3.7140108    1.0993854    2.6547058 
C     2.2048114    1.8694513    4.1234253 
H     2.7739903    1.8723249    5.0545914 
C     0.8324711    2.2479357    3.9713871 
H     0.1679835    2.5920053    4.7657164 
C     0.4702953    2.0654896    2.5979025 
H     1.7498150   -1.8421918    1.6775834 
H    -0.5080034    2.2681712    2.1648607 
C     2.0129044    2.7346723   -0.7049518 
C     3.5173256    2.8996118   -0.4061148 
C     4.1923415    1.5530202   -0.7189739 
C     3.3641597    0.3863620   -0.1072258 
H     1.8907183    2.5510518   -1.7869755 
H     3.9534177    3.7103287   -1.0157503 
H     3.6612291    3.1760590    0.6559605 
H     4.2229356    1.4191972   -1.8168181 
H     5.2353083    1.5258115   -0.3596888 
H     3.7044245    0.1772365    0.9210998 
C    -2.3108219   -2.4305943    1.3429233 
C    -3.3859420   -2.0092401    2.3662921 
C    -3.8266065   -0.5871225    1.9914385 
C    -2.5704916    0.2988331    1.7838877 
H    -2.7951232   -2.5206563    0.3533081 
H    -4.2390801   -2.7096896    2.3495126 
H    -2.9650916   -2.0355756    3.3896922 
H    -4.4041865   -0.6341981    1.0503454 
H    -4.4873364   -0.1382573    2.7538215 
H    -2.2129564    0.6513807    2.7676258 
C    -2.8053309    1.5469958    0.9046197 
H    -3.5838363    2.1541390    1.4051970 
H    -1.8916398    2.1685104    0.9004794 
C    -3.2132043    1.2902803   -0.5486034 
H    -3.3574081    2.2435499   -1.0849722 
H    -2.4163623    0.7262518   -1.0716109 
H    -4.1513796    0.7155258   -0.6268508 
C    -1.5396858   -3.7248968    1.6500792 
H    -0.8138695   -3.9053735    0.8337836 
H    -0.9432056   -3.5874194    2.5712406 
C    -2.4508904   -4.9501486    1.8123041 
H    -3.1008412   -5.0840329    0.9305382 
H    -1.8497690   -5.8670667    1.9374025 
H    -3.0993155   -4.8544421    2.7003065 
C     1.0883803    3.8899076   -0.2893719 
H     1.1609617    4.0475291    0.8026807 
H     0.0414183    3.5955577   -0.4994176 
C     1.4035126    5.2036650   -1.0195879 
H     1.3636304    5.0671282   -2.1142942 
H     0.6758392    5.9862357   -0.7441789 
H     2.4087930    5.5784441   -0.7601589 
C     3.4612618   -0.9328107   -0.8955068 
H     3.2107927   -0.7405922   -1.9545117 
H     2.7012439   -1.6461609   -0.5213062 
C     4.8555825   -1.5693451   -0.8089701 
H     4.8914824   -2.5180466   -1.3712535 
H     5.6302601   -0.9027299   -1.2264081 
H     5.1273014   -1.7858060    0.2401426 
