112
Energy =
C     2.7038739   -1.4874459   -1.4359940 
C     3.0090638   -0.1018946   -1.5974794 
C     3.1842977    0.7364575   -0.4785288 
H     2.9988115    0.3371035   -2.6027067 
Pd    1.0614878   -0.2871719   -0.5348006 
P    -0.4111179    1.3621275    0.2545623 
P    -0.3686889   -2.0816414   -0.0935047 
H     3.0856875   -1.9808852   -0.5319407 
H     3.3885274    0.2376507    0.4808991 
C     1.8850742   -4.1855602   -4.6896188 
C     1.6816855   -2.8053884   -4.8611493 
C     1.9407521   -1.9188712   -3.8109778 
C     2.4261181   -2.3911952   -2.5677613 
C     2.6275858   -3.7818257   -2.4093128 
C     2.3555521   -4.6691513   -3.4586410 
H     1.6768689   -4.8789761   -5.5109049 
H     1.3059150   -2.4206128   -5.8149519 
H     1.7380872   -0.8517300   -3.9490289 
H     2.9950342   -4.1655600   -1.4515793 
H     2.5145293   -5.7427929   -3.3144180 
C     4.1813930    4.9212720   -0.4214969 
C     4.3463182    4.1238277    0.7206291 
C     4.0184801    2.7636914    0.6791456 
C     3.5192965    2.1673162   -0.5024461 
C     3.3939865    2.9782293   -1.6555082 
C     3.7124957    4.3385183   -1.6115741 
H     4.4314457    5.9866209   -0.3915161 
H     4.7351439    4.5618796    1.6456962 
H     4.1563291    2.1448113    1.5722334 
H     3.0436220    2.5447227   -2.5947401 
H     3.6017680    4.9492216   -2.5136312 
Fe   -2.7924320    0.5947492    3.0144489 
C    -1.9003281    0.7811779    1.1591534 
C    -2.2344108   -0.6041402    1.4710119 
C    -3.6586474   -0.6699645    1.6977142 
C    -4.2080221    0.6449788    1.5571976 
C    -3.1365925    1.5397935    1.2517152 
C    -2.1526904   -0.2758377    4.7606969 
C    -1.5896485    1.0350181    4.6357075 
C    -2.6628226    1.9812423    4.5241108 
C    -3.8961427    1.2517902    4.5952512 
C    -3.5814437   -0.1424297    4.7404693 
C    -1.2938648   -1.7848540    1.5343720 
H    -4.2230071   -1.5623732    1.9714166 
H    -5.2532928    0.9216147    1.7057614 
H    -3.2414481    2.6128152    1.0865596 
H    -1.5923324   -1.2074853    4.8600022 
H    -0.5270400    1.2717774    4.6498702 
H    -2.5627877    3.0627133    4.4195038 
H    -4.8990044    1.6774023    4.5279925 
H    -4.3046073   -0.9579663    4.8006582 
H    -0.4468000   -1.5104615    2.1912124 
C    -1.9570537   -3.0610116    2.0784104 
H    -2.4360961   -2.8401984    3.0476918 
H    -2.7287219   -3.4439695    1.3895731 
H    -1.2124870   -3.8568149    2.2341460 
H    -1.8843175    3.0172538   -0.6308069 
C    -1.4655786    0.5043468   -3.0293027 
C    -2.1979983    1.3583244   -1.9845631 
C    -1.2591629    2.2803530   -1.1661187 
C    -0.2920934    3.0611669   -2.0864252 
C     0.3864369    2.1854466   -3.1510552 
C    -0.6272401    1.3764545   -3.9702308 
H    -2.1946422   -0.1097527   -3.5859087 
H    -0.7873803   -0.2090150   -2.5162352 
H    -2.7966301    0.7200052   -1.3118716 
H    -2.9209491    2.0152885   -2.5068425 
H    -0.8951068    3.8361795   -2.5983961 
H     0.4674104    3.6041519   -1.4953139 
H     1.0132368    2.8177923   -3.8048994 
H     1.0630574    1.4700182   -2.6410598 
H    -0.1061528    0.7504661   -4.7173854 
H    -1.2856142    2.0637627   -4.5373105 
H     1.1680947    3.1318402    0.6253142 
C     1.7750922    2.9918932    3.4400797 
C     1.1271826    1.9881788    2.4682327 
C     0.4066505    2.6813782    1.2920950 
C    -0.5610766    3.7754984    1.7858214 
C     0.1554810    4.7861350    2.6994501 
C     0.7940934    4.0802733    3.9049776 
H     2.6245209    3.4832952    2.9320907 
H     2.1946183    2.4478035    4.3062271 
H     0.3827227    1.3696648    2.9998471 
H     1.8861108    1.2884264    2.0746792 
H    -1.0210442    4.3014851    0.9299917 
H    -1.3752611    3.2875903    2.3537433 
H     0.9397369    5.3121488    2.1204730 
H    -0.5632685    5.5555113    3.0346453 
H    -0.0026652    3.6304946    4.5286945 
H     1.3179712    4.8102032    4.5473814 
C    -3.2660320   -3.1066108   -3.5764522 
C    -1.9006341   -3.4217583   -3.6528719 
C    -1.0515477   -3.1469774   -2.5748144 
C    -1.5611987   -2.5555844   -1.3966675 
C    -2.9335163   -2.2377619   -1.3273437 
C    -3.7777491   -2.5166116   -2.4115989 
H    -3.9288116   -3.3199471   -4.4214268 
H    -1.4850942   -3.8805343   -4.5558029 
H     0.0094824   -3.3951774   -2.6510163 
H    -3.3486838   -1.7605614   -0.4379799 
H    -4.8416153   -2.2669960   -2.3425459 
C     2.1129091   -5.8358460    1.0982523 
C     2.4407359   -4.5595702    1.5850629 
C     1.6836237   -3.4475552    1.1961533 
C     0.5846962   -3.5983813    0.3222569 
C     0.2469704   -4.8840429   -0.1426382 
C     1.0153715   -5.9939287    0.2399154 
H     2.7103217   -6.7048120    1.3924332 
H     3.2906074   -4.4304806    2.2632084 
H     1.9492101   -2.4498445    1.5689032 
H    -0.6132979   -5.0234892   -0.8035929 
H     0.7503177   -6.9879057   -0.1350540 
