122
Energy =
C     1.4162764   -1.7583791   -2.7286131 
C     2.2544394   -0.6685860   -2.3655503 
C     3.0249745   -0.6888282   -1.1807593 
H     2.2162648    0.2525842   -2.9589487 
Pd    0.7394480   -0.8578407   -0.7561057 
P     0.8769976    0.4416614    1.1903950 
P    -1.4362456   -1.7667035   -0.8009259 
H     1.6657744   -2.7433981   -2.3079844 
H     3.2091701   -1.6683836   -0.7140501 
C    -0.9346324   -1.9831657   -6.3220901 
C    -0.6060150   -3.1416038   -5.6037645 
C     0.1580713   -3.0494735   -4.4346863 
C     0.6063429   -1.7972601   -3.9576642 
C     0.2785403   -0.6377948   -4.7009204 
C    -0.4835544   -0.7319436   -5.8679743 
H    -1.5336603   -2.0522527   -7.2358919 
H    -0.9437280   -4.1223864   -5.9542298 
H     0.4192243   -3.9568527   -3.8802938 
H     0.6097911    0.3500205   -4.3641134 
H    -0.7319378    0.1759562   -6.4270990 
C     5.6673463    2.4089804    0.2062609 
C     5.5603105    1.1946212    0.9001381 
C     4.7109943    0.1895281    0.4225778 
C     3.9248736    0.3869672   -0.7376497 
C     4.0564234    1.6127542   -1.4346717 
C     4.9248162    2.6046802   -0.9711676 
H     6.3239447    3.2019549    0.5770633 
H     6.1368271    1.0287745    1.8154016 
H     4.6531478   -0.7680772    0.9493028 
H     3.4769035    1.7982061   -2.3436701 
H     5.0149095    3.5468850   -1.5199266 
Fe   -3.4465037    2.2492680    1.8812821 
C    -1.7377269    1.2995602    1.3575553 
C    -2.8848600    0.4962058    0.9593314 
C    -3.7031628    1.3119488    0.0953306 
H    -4.6406407    0.9914993   -0.3596325 
C    -3.0595385    2.5772276   -0.0875137 
H    -3.4362866    3.4083579   -0.6855557 
C    -1.8581315    2.5800087    0.6927087 
H    -1.1739946    3.4219520    0.8087428 
C    -3.1862440    3.0837831    3.7291428 
H    -2.2406157    3.1789123    4.2670004 
C    -4.0960846    1.9770000    3.8114648 
H    -3.9706816    1.0941926    4.4410582 
C    -5.2054125    2.2472430    2.9388586 
H    -6.0696949    1.6019888    2.7701829 
C    -4.9819597    3.5231207    2.3229963 
H    -5.6335015    4.0056212    1.5922195 
C    -3.7355604    4.0408509    2.8118196 
H    -3.2736861    4.9845520    2.5153781 
C    -3.1689284   -0.9219065    1.3208581 
C    -2.5110016   -2.0183126    0.6914460 
C    -2.7654724   -3.3300100    1.1459768 
H    -2.2625972   -4.1778060    0.6741827 
C    -3.6798832   -3.5764653    2.1784754 
H    -3.8555647   -4.6040078    2.5124726 
C    -4.3820774   -2.5091794    2.7492390 
H    -5.1238201   -2.6875911    3.5345025 
C    -4.1219037   -1.2029327    2.3178684 
H    -4.6464779   -0.3573286    2.7650584 
C     2.1091889   -0.2680439    2.3519613 
C     2.3619280   -1.6358335    2.1533692 
H     1.8147991   -2.1729406    1.3698176 
C     3.3291871   -2.3087030    2.9090304 
C     4.0544621   -1.6264919    3.8928932 
H     4.8220395   -2.1423207    4.4758818 
C     3.7774802   -0.2683858    4.1221679 
C     2.8024477    0.4070594    3.3742520 
H     2.6050478    1.4565781    3.6038162 
C     1.4364257    2.0808460    0.5589654 
C     2.2852810    3.0087661    1.1866355 
H     2.7588476    2.7969453    2.1455506 
C     2.5838456    4.2230222    0.5522475 
C     2.0383164    4.5418196   -0.7026655 
H     2.2892467    5.4845626   -1.1961459 
C     1.1944350    3.6166717   -1.3249458 
C     0.8990634    2.3999603   -0.6999676 
H     0.2399107    1.6806540   -1.1984718 
C    -0.6029970    0.9192557    2.2726694 
H    -0.2698835    1.8353849    2.7946246 
C    -0.8979405   -0.1754948    3.3102824 
H    -1.8535461    0.0550243    3.8081821 
H    -0.9904883   -1.1733364    2.8516997 
H    -0.1017247   -0.2160739    4.0709892 
C     3.5283322    5.2117551    1.2053204 
F     4.4764294    5.6265261    0.3277532 
F     2.8705613    6.3123525    1.6318798 
F     4.1655178    4.6727016    2.2701976 
C     0.6311893    3.8400444   -2.7077183 
F    -0.7090336    3.6184502   -2.7371451 
F     0.8630428    5.0767395   -3.1759754 
F     1.1821638    2.9523553   -3.5937283 
C     3.6408362   -3.7398642    2.5341003 
F     4.3811873   -4.3709884    3.4602120 
F     2.5056964   -4.4558777    2.3332764 
F     4.3300594   -3.7695162    1.3574328 
C     4.6100698    0.5026486    5.1271332 
F     3.9382206    1.5698377    5.6154009 
F     4.9851064   -0.2711052    6.1648189 
F     5.7421281    0.9733812    4.5408009 
C    -0.8565463   -6.1562042   -2.2627891 
C    -0.0069256   -5.5935726   -1.2954392 
C    -0.1991526   -4.2692246   -0.8820279 
C    -1.2452537   -3.4914089   -1.4278046 
C    -2.0864810   -4.0595610   -2.4017593 
C    -1.8921674   -5.3877190   -2.8121159 
H    -0.7066399   -7.1905060   -2.5887986 
H     0.8051046   -6.1857210   -0.8610503 
H     0.4655221   -3.8402107   -0.1211957 
H    -2.8797178   -3.4648544   -2.8620826 
H    -2.5490640   -5.8166300   -3.5758652 
C    -4.2577893    0.5763361   -3.6489237 
C    -4.7529493   -0.5348485   -2.9449811 
C    -3.9135121   -1.2575209   -2.0875293 
C    -2.5595667   -0.8825070   -1.9489089 
C    -2.0753154    0.2343030   -2.6511347 
C    -2.9198342    0.9655322   -3.4958954 
H    -4.9217284    1.1439159   -4.3093016 
H    -5.8014568   -0.8308878   -3.0544960 
H    -4.3157756   -2.0947423   -1.5066684 
H    -1.0323763    0.5376614   -2.5200891 
H    -2.5292799    1.8416071   -4.0225808 
