122
Energy =
C    -0.5984829   -2.6267954    1.6756211 
C    -0.6924516   -1.7477245    2.8047223 
C    -1.6906767   -0.7556896    2.8500139 
H     0.0867676   -1.7657862    3.5768479 
Pd   -0.3048245   -0.5412721    0.9887537 
P     0.4893920    1.7038734    1.0680972 
P     0.1428769   -1.0043475   -1.2643925 
H    -1.5412222   -2.9442255    1.2118139 
H    -2.4891507   -0.8129407    2.0925190 
C     2.7651647   -5.2049020    0.9076423 
C     2.9335665   -4.0483758    1.6881992 
C     1.8448904   -3.2121556    1.9530943 
C     0.5545571   -3.5221610    1.4558935 
C     0.3964583   -4.7065923    0.7001550 
C     1.4917747   -5.5327898    0.4185623 
H     3.6246599   -5.8419441    0.6788863 
H     3.9239329   -3.7892223    2.0730818 
H     2.0011840   -2.2994587    2.5381677 
H    -0.5990735   -4.9798109    0.3386978 
H     1.3511708   -6.4316832   -0.1892602 
C    -2.7285376    1.8267320    6.1060233 
C    -1.8102696    0.7848283    6.3169324 
C    -1.4272634   -0.0412434    5.2561525 
C    -1.9729239    0.1510137    3.9642046 
C    -2.8913613    1.2098683    3.7661413 
C    -3.2611158    2.0424226    4.8250200 
H    -3.0285592    2.4691496    6.9402272 
H    -1.3996674    0.6103569    7.3166913 
H    -0.7323243   -0.8663754    5.4420903 
H    -3.3051375    1.3721281    2.7661908 
H    -3.9671243    2.8610613    4.6549217 
Fe   -3.7059006    1.7697881   -1.8836072 
C    -2.0394933    0.7034119   -1.4671104 
C    -1.9297195    2.0360076   -0.8983030 
C    -3.0498794    2.2281471   -0.0108218 
H    -3.2613199    3.1412484    0.5469045 
C    -3.8339551    1.0265125    0.0000048 
H    -4.7654778    0.8719584    0.5482206 
C    -3.2156007    0.0859619   -0.8893995 
H    -3.6092643   -0.9013011   -1.1418389 
C    -4.3509158    1.3301165   -3.7730331 
H    -4.0282001    0.4837858   -4.3827666 
C    -3.7493431    2.6331893   -3.7471111 
H    -2.8978821    2.9556682   -4.3488906 
C    -4.4726072    3.4379788   -2.8025944 
H    -4.2633299    4.4777097   -2.5441001 
C    -5.5239201    2.6340384   -2.2506622 
H    -6.2398715    2.9488891   -1.4892618 
C    -5.4495115    1.3322240   -2.8497024 
H    -6.0974367    0.4836794   -2.6219932 
C    -0.7939354    2.9694550   -1.1282443 
C     0.4238718    2.8215338   -0.4085435 
C     1.5312996    3.6228111   -0.7542817 
H     2.4873419    3.4817141   -0.2461357 
C     1.4372065    4.5873540   -1.7647442 
H     2.3198248    5.1763822   -2.0314156 
C     0.2155543    4.7913090   -2.4191687 
H     0.1217337    5.5624664   -3.1905858 
C    -0.8829471    3.9833695   -2.1018565 
H    -1.8313319    4.1026370   -2.6283409 
C     1.9182977   -0.8002294   -1.6838173 
C     2.4498226    0.4414563   -2.0813884 
H     1.7996841    1.2930462   -2.2805920 
C     3.8361316    0.6114418   -2.1983413 
C     4.7129080   -0.4492598   -1.9420078 
H     5.7912815   -0.3193093   -2.0616927 
C     4.1877343   -1.6795032   -1.5241157 
C     2.8057487   -1.8540546   -1.3683404 
H     2.4341221   -2.8082619   -0.9816818 
C    -0.3053804   -2.7012664   -1.8443925 
C    -1.5890530   -3.1300467   -1.4661735 
H    -2.2076368   -2.4903113   -0.8300183 
C    -2.0885175   -4.3689735   -1.8814876 
C    -1.3015261   -5.2224026   -2.6645946 
H    -1.6795478   -6.1997303   -2.9750645 
C    -0.0192212   -4.7984649   -3.0434629 
C     0.4726055   -3.5408112   -2.6606769 
H     1.4637943   -3.2400194   -3.0077314 
C    -1.0761165   -0.0070518   -2.3849901 
H    -1.6382695   -0.8380513   -2.8424657 
C    -0.4599475    0.7984560   -3.5366118 
H    -1.2776271    1.1243232   -4.2002231 
H     0.0671579    1.7018307   -3.1998234 
H     0.2363737    0.1773327   -4.1242642 
C    -3.4485158   -4.7845532   -1.3696780 
F    -3.3892399   -5.0354783   -0.0309360 
F    -4.3596231   -3.7902769   -1.5355984 
F    -3.9170212   -5.8882811   -1.9749861 
C     0.8809672   -5.7445253   -3.8128600 
F     1.7994269   -5.0757187   -4.5452229 
F     1.5589808   -6.5531826   -2.9571252 
F     0.1763705   -6.5392494   -4.6444340 
C     4.3966364    1.9765242   -2.5349964 
F     5.5789799    1.8918355   -3.1765901 
F     3.5475054    2.6911782   -3.3116252 
F     4.6061806    2.7028797   -1.4020003 
C     5.1297002   -2.8156740   -1.1846812 
F     5.4473155   -2.8088529    0.1432111 
F     4.5763960   -4.0197335   -1.4516737 
F     6.2884959   -2.7254268   -1.8663190 
C     5.0409400    1.3479270    2.0381353 
C     4.3751461    2.5646789    2.2570669 
C     3.0042308    2.6777795    1.9937038 
C     2.2846400    1.5715048    1.4878781 
C     2.9567020    0.3485126    1.3004869 
C     4.3276409    0.2353010    1.5709547 
H     6.1130688    1.2659377    2.2448124 
H     4.9254639    3.4306406    2.6391568 
H     2.4909484    3.6258797    2.1852146 
H     2.3979761   -0.5241996    0.9473881 
H     4.8323411   -0.7218856    1.4099751 
C    -0.8428875    4.5133423    4.5351742 
C    -0.1055907    3.3462768    4.7893446 
C     0.2473740    2.4940448    3.7380118 
C    -0.1074518    2.8177314    2.4102335 
C    -0.8474645    3.9892387    2.1602491 
C    -1.2187872    4.8278108    3.2220949 
H    -1.1194649    5.1778692    5.3601286 
H     0.1903262    3.0939583    5.8119460 
H     0.8289075    1.5892043    3.9443887 
H    -1.1052148    4.2709922    1.1351330 
H    -1.7854377    5.7418664    3.0156673 
