112
Energy =
C     2.7208775    1.7062397   -1.4806758 
C     1.8317175    1.5624563   -2.5679939 
C     0.5717759    2.2451304   -2.5838283 
H     2.0347345    0.8049704   -3.3359029 
Pd    0.6795774    0.8861909   -0.8316186 
P    -1.5383015    0.6561954   -0.1502459 
P     1.4666761   -0.6995864    0.7038625 
H     2.5756943    2.5868749   -0.8356633 
H     0.5299439    3.2340431   -2.1043345 
C     6.5521047   -0.1601344   -0.9231645 
C     6.0520145    0.7494561    0.0202111 
C     4.8006516    1.3439391   -0.1761330 
C     4.0187097    1.0360196   -1.3142555 
C     4.5321510    0.1082776   -2.2503787 
C     5.7864612   -0.4770881   -2.0576681 
H     7.5350791   -0.6200928   -0.7783509 
H     6.6415633    1.0045915    0.9068259 
H     4.4193654    2.0595692    0.5595691 
H     3.9545474   -0.1517698   -3.1421894 
H     6.1703310   -1.1873014   -2.7966229 
C    -2.4050003    1.5769397   -5.6311340 
C    -1.6222175    0.5054518   -5.1677219 
C    -0.6481904    0.7187059   -4.1869475 
C    -0.4313506    2.0083806   -3.6450702 
C    -1.2149814    3.0770128   -4.1322423 
C    -2.1927680    2.8633158   -5.1138082 
H    -3.1715565    1.4092138   -6.3944971 
H    -1.7800971   -0.5018481   -5.5674669 
H    -0.0673328   -0.1291376   -3.8064119 
H    -1.0495064    4.0859508   -3.7388349 
H    -2.7892660    3.7062982   -5.4779870 
Fe   -0.3980726   -3.7164196    1.2385184 
C     0.1723550   -1.7741283    1.4348095 
C    -1.2264186   -1.8615069    1.0109438 
C    -1.9273757   -2.6143285    2.0181086 
C    -1.0084367   -2.9961980    3.0447330 
C     0.2824731   -2.4932892    2.6898613 
C     0.0537239   -4.6506665   -0.5297516 
C     1.0875603   -4.8811998    0.4405278 
C     0.4925319   -5.5267737    1.5726407 
C    -0.9083900   -5.6924533    1.3064938 
C    -1.1795373   -5.1521533    0.0053133 
C     2.2986409    0.0826240    2.1473215 
C     2.2231147    1.4873997    2.2435162 
C     2.8040002    2.1701445    3.3207434 
C     3.4802945    1.4544246    4.3183897 
C     3.5646006    0.0557677    4.2359658 
C     2.9748575   -0.6275440    3.1643480 
C     2.6724481   -1.8142160   -0.1321452 
C     2.3017850   -2.2790580   -1.4124951 
C     3.1115322   -3.1837214   -2.1084290 
C     4.3182772   -3.6219556   -1.5413989 
C     4.7181598   -3.1246136   -0.2933914 
C     3.9060891   -2.2199728    0.4078379 
C    -1.9333846   -1.1821332   -0.1433716 
H    -2.9883188   -2.8712766    1.9782519 
H    -1.2380623   -3.6042772    3.9215308 
H     1.1910864   -2.6354362    3.2725727 
H     0.1884212   -4.1849172   -1.5051325 
H     2.1366772   -4.5993653    0.3387144 
H     1.0070495   -5.8130973    2.4918989 
H    -1.6433361   -6.1275555    1.9863375 
H    -2.1563465   -5.1232300   -0.4812265 
H     1.6994560    2.0453393    1.4592469 
H     3.0518517   -1.7175463    3.1276220 
H     1.3681483   -1.9255012   -1.8633548 
H     4.2557806   -1.8207513    1.3618990 
H     2.7264369    3.2607206    3.3783219 
H     4.0903503   -0.5089215    5.0128421 
H     2.8030840   -3.5435309   -3.0955009 
H     5.6761290   -3.4312879    0.1387195 
H     3.9391329    1.9828763    5.1603043 
H     4.9540802   -4.3316014   -2.0804421 
H    -3.0149335   -1.2610550    0.0638521 
C    -1.6684548   -1.7791277   -1.5362987 
H    -0.5930234   -1.7479621   -1.7728870 
H    -1.9964415   -2.8302845   -1.5577524 
H    -2.2066383   -1.2264645   -2.3254818 
H    -2.4828597    1.1530490   -2.2495833 
H    -0.9298824    0.5071478    2.0964837 
C    -4.0555554    3.5102033   -0.3666370 
C    -2.8479997    2.9806560   -1.1539646 
C    -2.8482499    1.4234140   -1.2415179 
C    -4.2766849    0.8387975   -1.0863857 
C    -5.2863584    1.7659027   -1.7864826 
C    -5.3809045    3.1381957   -1.0729834 
H    -3.9778208    4.6043214   -0.2421768 
H    -4.0448931    3.0854187    0.6539018 
H    -1.8942954    3.3527867   -0.7383293 
H    -2.8987732    3.3762988   -2.1824917 
H    -4.3169909   -0.1723131   -1.5272179 
H    -4.5534077    0.7325886   -0.0217060 
H    -4.9603751    1.9020699   -2.8352393 
H    -6.2785298    1.2841862   -1.8294455 
H    -6.1983682    3.1247056   -0.3301746 
H    -5.6440406    3.9166646   -1.8112440 
C    -2.8862381    1.0496550    3.8699230 
C    -3.0374490    0.8369919    2.3510497 
C    -1.7035914    1.1614376    1.6448147 
C    -1.2717866    2.6165818    1.9336277 
C    -1.1132788    2.8248217    3.4506706 
C    -2.4122881    2.4757923    4.1975610 
H    -2.1539074    0.3149957    4.2589783 
H    -3.8470814    0.8377032    4.3724957 
H    -3.8332266    1.5005645    1.9647939 
H    -3.3498202   -0.2012631    2.1472223 
H    -0.3291000    2.8488334    1.4041599 
H    -2.0330464    3.3184766    1.5504107 
H    -0.2883166    2.1833062    3.8177338 
H    -0.8198326    3.8702881    3.6560856 
H    -3.2020808    3.1962176    3.9062439 
H    -2.2693313    2.5894640    5.2869751 
