98
Energy =
C    -1.1486379   -1.7330134   -2.3065328 
C    -0.7355161   -0.5467653   -2.9638168 
C     0.6387909   -0.2145448   -3.0531206 
H    -1.4923742    0.1631763   -3.3189929 
Pd   -0.0538384   -0.3254676   -0.8727162 
P     1.6246817    1.1089988   -0.0104591 
P    -1.1102602   -1.0420158    1.1148941 
H    -0.4033724   -2.5382753   -2.2213018 
H     1.3495485   -1.0472792   -2.9535609 
C    -5.2090657   -3.1158216   -1.9603722 
C    -4.1397422   -4.0239580   -1.9623650 
C    -2.8241884   -3.5589038   -2.0818652 
C    -2.5500068   -2.1767736   -2.2041245 
C    -3.6400704   -1.2759767   -2.2209201 
C    -4.9533680   -1.7403734   -2.0961239 
H    -6.2379309   -3.4761545   -1.8607304 
H    -4.3301952   -5.0980823   -1.8698868 
H    -1.9922287   -4.2716832   -2.0751946 
H    -3.4574197   -0.2006402   -2.3170955 
H    -5.7840044   -1.0269554   -2.1034244 
C     2.3079342    3.2557952   -4.9733415 
C     0.9456283    3.2402709   -4.6282363 
C     0.3854021    2.1165165   -4.0126205 
C     1.1754971    0.9784377   -3.7276578 
C     2.5387008    1.0001326   -4.1037464 
C     3.1009169    2.1274803   -4.7153464 
H     2.7445616    4.1392997   -5.4497565 
H     0.3186502    4.1135254   -4.8357837 
H    -0.6722221    2.1324646   -3.7313121 
H     3.1610163    0.1179471   -3.9175013 
H     4.1591113    2.1230776   -4.9962364 
Fe    1.0499699    0.4132411    3.2297734 
C    -0.0307599   -1.1380640    2.5751729 
C    -0.3486138   -0.8540821    3.9617097 
H    -1.3254574   -0.5754709    4.3597867 
C     0.8558359   -0.9763256    4.7294829 
H     0.9477997   -0.7942350    5.8016649 
C     1.9207917   -1.3411865    3.8422354 
H     2.9661321   -1.4856932    4.1203357 
C     1.3826519   -1.4472257    2.5185702 
C     1.4909739    1.6546582    1.7251700 
C     2.5250176    1.7108900    2.7423457 
H     3.5804578    1.4681334    2.6120474 
C     1.9189268    2.1176146    3.9758703 
H     2.4333950    2.2210284    4.9328023 
C     0.5219956    2.3309770    3.7413618 
H    -0.2172224    2.6264823    4.4878428 
C     0.2549406    2.0582307    2.3609130 
H     1.9367241   -1.7032458    1.6143558 
H    -0.7151306    2.1302096    1.8698280 
C     2.1077876    2.7237002   -0.8588970 
C     3.6109874    2.8351598   -0.5273897 
C     4.2490536    1.4544319   -0.7431545 
C     3.3609291    0.3606674   -0.0873258 
H     1.9902632    2.5414336   -1.9412924 
H     4.0876555    3.6041812   -1.1616525 
H     3.7330730    3.1618813    0.5230493 
H     4.3085492    1.2543041   -1.8287327 
H     5.2786058    1.4146690   -0.3477726 
H     3.6454673    0.2237949    0.9709712 
C    -2.0671313   -2.6512077    1.1273166 
C    -3.0873379   -2.4398088    2.2610804 
C    -3.7067984   -1.0506822    2.0299902 
C    -2.5857418   -0.0192709    1.7046083 
H    -2.6254642   -2.5921817    0.1762355 
H    -3.8572011   -3.2328010    2.2477126 
H    -2.5891089   -2.4894450    3.2466324 
H    -4.3907366   -1.1084549    1.1623289 
H    -4.3053469   -0.7177218    2.8948686 
H    -2.2376126    0.4726555    2.6306329 
C    -3.0183448    1.0683122    0.7032529 
H    -2.1382091    1.6670382    0.4031906 
H    -3.3751676    0.5761903   -0.2191682 
C    -4.1066641    1.9955578    1.2593404 
H    -4.3771415    2.7711903    0.5224677 
H    -5.0251761    1.4377144    1.5121210 
H    -3.7603621    2.5059936    2.1767429 
C    -1.2590418   -3.9646378    1.1089439 
H    -1.9220353   -4.7433921    0.6858102 
H    -0.4270185   -3.8587253    0.3848871 
C    -0.7200905   -4.4591370    2.4589155 
H    -0.1547630   -5.3964789    2.3195372 
H    -0.0478060   -3.7272989    2.9352432 
H    -1.5420912   -4.6719902    3.1640941 
C     1.2733281    3.9454135   -0.4462253 
H     1.7284928    4.8344433   -0.9227577 
H     1.3720439    4.0992575    0.6448367 
C    -0.2064641    3.8615736   -0.8371114 
H    -0.3257133    3.8419572   -1.9327516 
H    -0.6746414    2.9413735   -0.4405800 
H    -0.7719293    4.7241334   -0.4458760 
C     3.4488250   -1.0144133   -0.7763698 
H     3.2286133   -0.8920243   -1.8517950 
H     2.6600462   -1.6825447   -0.3796740 
C     4.8226203   -1.6767202   -0.6039582 
H     4.8489558   -2.6644028   -1.0951071 
H     5.6260385   -1.0612261   -1.0448974 
H     5.0593769   -1.8228370    0.4656585 
