90
Energy =
C     2.9411121    0.9634749   -0.2758553 
C     2.8674260    0.2441021    0.9382000 
C     2.5809708   -1.1459098    0.9599777 
H     2.9596358    0.7858171    1.8872156 
Pd    0.8290189    0.0206911    0.0788574 
P    -0.7295075   -1.7220668    0.5324173 
P    -0.4732687    1.5786071   -1.1233116 
H     3.0816727    0.3716820   -1.1923531 
H     2.7952695   -1.7061263    0.0369907 
C     4.1870706    5.0599174   -0.7166479 
C     4.1708859    4.1900687   -1.8171643 
C     3.7590514    2.8621602   -1.6542833 
C     3.3452581    2.3742253   -0.3915280 
C     3.3860806    3.2607739    0.7103767 
C     3.8005707    4.5858142    0.5485892 
H     4.5096019    6.0987685   -0.8394217 
H     4.4878994    4.5442998   -2.8033844 
H     3.7633143    2.1834640   -2.5143149 
H     3.0850379    2.9169089    1.7051339 
H     3.8232591    5.2557975    1.4142137 
C     2.4248727   -3.6200886    4.4838817 
C     2.3046582   -2.2252705    4.6066563 
C     2.3691113   -1.4073206    3.4746515 
C     2.5514326   -1.9640894    2.1868780 
C     2.7107650   -3.3670082    2.0859210 
C     2.6402617   -4.1870640    3.2188214 
H     2.3665568   -4.2579335    5.3715427 
H     2.1556658   -1.7736850    5.5928860 
H     2.2550602   -0.3255109    3.5941672 
H     2.9051900   -3.8171576    1.1055570 
H     2.7634586   -5.2699586    3.1148410 
Fe   -3.2492596   -0.4961887   -1.4910713 
C    -2.4645940   -1.6353134   -0.0210803 
C    -3.1613659   -2.4545576   -0.9935616 
H    -2.7277025   -3.2424712   -1.6086080 
C    -4.5293161   -2.0295424   -1.0451155 
H    -5.2952104   -2.4366995   -1.7076209 
C    -4.7005461   -0.9534931   -0.1161925 
H    -5.6230204   -0.3986562    0.0627324 
C    -3.4394795   -0.7079505    0.5163729 
C    -1.9304437    0.9425659   -2.0089185 
C    -3.2796448    1.4663487   -2.0483880 
H    -3.6654037    2.3048730   -1.4670580 
C    -4.0390163    0.6804227   -2.9750066 
H    -5.0998777    0.8088920   -3.1975040 
C    -3.1783712   -0.3257137   -3.5238795 
H    -3.4682840   -1.0972360   -4.2394132 
C    -1.8814643   -0.1737757   -2.9322290 
C    -1.1137466    2.9878411   -0.0621906 
C     0.4614876    2.4419681   -2.5083515 
H    -3.2483190    0.0442276    1.2797651 
H    -1.0109278   -0.8006079   -3.1258978 
C     0.0121653   -3.2665243   -0.2407749 
C    -0.8835201   -2.0724131    2.3806885 
H    -1.7074878    3.6242114   -0.7443825 
H     1.3135850    2.9090195   -1.9836655 
H     1.0016084   -3.2680845    0.2475156 
H     0.0516853   -2.6198873    2.6001475 
C    -0.6510121   -4.6138083    0.0928968 
H    -0.1274258   -5.4166640   -0.4571119 
H    -0.5691154   -4.8453094    1.1668409 
H    -1.7152981   -4.6532550   -0.1899958 
C     0.2490453   -3.0622210   -1.7496875 
H     0.8782072   -3.8810744   -2.1410073 
H    -0.6919860   -3.0602596   -2.3242563 
H     0.7686888   -2.1059411   -1.9450918 
C    -2.0902188   -2.9429800    2.7754131 
H    -2.0160747   -3.1916370    3.8493078 
H    -3.0389042   -2.4030134    2.6185432 
H    -2.1439586   -3.8867559    2.2132246 
C    -0.8735812   -0.7566762    3.1803595 
H    -0.7272564   -0.9734630    4.2527217 
H    -0.0640948   -0.0828759    2.8499676 
H    -1.8319582   -0.2188176    3.0764569 
C    -2.0190134    2.4901445    1.0735831 
H    -2.3480913    3.3464652    1.6884647 
H    -2.9148201    1.9799002    0.6896124 
H    -1.4721899    1.7896788    1.7288644 
C     0.0646004    3.8006987    0.4972087 
H    -0.3198162    4.6523698    1.0855608 
H     0.6775773    3.1739332    1.1673372 
H     0.7255552    4.2047614   -0.2863505 
C     1.0212161    1.4212663   -3.5142816 
H     1.7578608    1.9151983   -4.1723035 
H     1.5237336    0.5758493   -3.0109088 
H     0.2236691    1.0142994   -4.1583927 
C    -0.3593454    3.5356634   -3.2110306 
H     0.2461810    3.9853745   -4.0184209 
H    -1.2752941    3.1203900   -3.6675236 
H    -0.6478027    4.3501210   -2.5258243 
