86
Energy =
C     0.1084681    2.8797273   -0.0208604 
C     1.0853732    2.5576068    0.9751289 
C     2.3221760    1.9839133    0.6438478 
H     0.8356963    2.7264854    2.0303450 
Pd    0.3199043    0.6765310    0.0485193 
P     0.8762093   -1.5888784    0.5441524 
P    -1.5905971    0.2722158   -1.2334082 
H     0.4857126    3.1000903   -1.0305908 
H     2.5965357    1.9770961   -0.4217295 
C    -3.5848056    4.8697320    0.9713586 
C    -3.0636845    3.8911723    1.8348389 
C    -1.8627297    3.2443421    1.5234895 
C    -1.1572604    3.5573342    0.3391678 
C    -1.6888666    4.5503827   -0.5148784 
C    -2.8898147    5.2008271   -0.2012687 
H    -4.5252887    5.3739967    1.2153794 
H    -3.5997668    3.6293427    2.7530675 
H    -1.4739924    2.4701196    2.1948994 
H    -1.1498542    4.8145687   -1.4318662 
H    -3.2825900    5.9698915   -0.8743136 
C     5.6671021    1.3532949    3.2683512 
C     4.4001748    1.6218980    3.8147903 
C     3.2993474    1.8269047    2.9784518 
C     3.4358516    1.7532234    1.5702054 
C     4.7239636    1.5006270    1.0372493 
C     5.8269411    1.3042557    1.8750919 
H     6.5267706    1.1953722    3.9273772 
H     4.2734460    1.6778182    4.9007587 
H     2.3254994    2.0476023    3.4268212 
H     4.8580770    1.4696278   -0.0494728 
H     6.8137469    1.1151883    1.4406968 
Fe   -0.7047717   -2.8549153   -2.1915425 
C    -1.2731620   -0.9674519   -2.5213345 
C    -2.1974755   -1.8859913   -3.1580517 
H    -3.2644905   -1.9822837   -2.9507421 
C    -1.4578102   -2.6805497   -4.0940141 
H    -1.8667756   -3.4868643   -4.7056262 
C    -0.0861645   -2.2654418   -4.0555114 
H     0.7307021   -2.7007416   -4.6337435 
C     0.0346785   -1.2085055   -3.0957054 
C     0.1224345   -2.9812144   -0.3611348 
C     0.7938281   -3.8730504   -1.2859904 
H     1.8468967   -3.8373514   -1.5685523 
C    -0.1731060   -4.7970049   -1.8009590 
H     0.0217811   -5.5757223   -2.5403732 
C    -1.4414811   -4.4953501   -1.2080680 
H    -2.3834080   -5.0079675   -1.4106388 
C    -1.2692398   -3.3813383   -0.3221719 
H     0.9527443   -0.6860682   -2.8146025 
H    -2.0514609   -2.9235756    0.2839785 
C     0.6400830   -1.9492988    2.3765423 
C     1.9256046   -1.2891876    2.9242469 
C     3.1448499   -1.7044233    2.0601456 
C     2.6963801   -2.0511119    0.6045312 
H    -0.2506311   -1.4049611    2.7359704 
H     1.8053030   -0.1937041    2.8737846 
H     2.0741119   -1.5444426    3.9883673 
H     3.8902397   -0.8936820    2.0530035 
H     3.6409538   -2.5893558    2.4933933 
H     2.7022612   -3.1500040    0.4933341 
C    -2.4136998    1.6548869   -2.1981081 
C    -3.8912964    1.2176435   -2.2541266 
C    -4.2573306    0.7279366   -0.8449104 
C    -3.1759389   -0.2762906   -0.3647032 
H    -2.3538103    2.5343562   -1.5349135 
H    -4.5307491    2.0604079   -2.5734593 
H    -4.0237339    0.4106564   -3.0001456 
H    -4.2734222    1.5934382   -0.1556627 
H    -5.2575570    0.2618083   -0.8075614 
H    -3.3885253   -1.2773653   -0.7808649 
C    -3.0613914   -0.3745533    1.1612646 
H    -2.8144921    0.6063558    1.5998758 
H    -4.0220379   -0.7083674    1.5920095 
C    -1.7516904    1.9825804   -3.5378674 
H    -2.2724581    2.8319363   -4.0143152 
H    -0.6923837    2.2674476   -3.4075721 
C     0.5133289   -3.4423165    2.7117514 
H    -0.4076434   -3.8804510    2.2944582 
H     0.4864351   -3.5692336    3.8089491 
C     3.5324755   -1.4405149   -0.5243355 
H     3.2225098   -1.8290973   -1.5102975 
H     4.6024603   -1.6755585   -0.3870552 
H    -1.7918013    1.1243130   -4.2306158 
H    -2.2811803   -1.0892952    1.4729688 
H     3.4225267   -0.3446864   -0.5454814 
H     1.3667852   -4.0267876    2.3265830 
