132
Energy =
C     1.7662264   -1.3734747   -2.6262739 
C     1.9730046    0.0316906   -2.6433016 
C     2.6361492    0.6908228   -1.5727679 
H     1.4968194    0.6334314   -3.4286010 
Pd    0.7952661   -0.3858014   -0.8490462 
P     0.4836263    0.8626500    1.0963776 
P    -1.0384733   -1.8487837   -0.5188693 
H     2.4747285   -1.9761884   -2.0364691 
H     3.3732658    0.1067147   -1.0017026 
C    -0.2108136   -3.5554673   -5.7690091 
C     0.8397057   -4.1376866   -5.0452523 
C     1.4666028   -3.4228561   -4.0158780 
C     1.0660882   -2.1058979   -3.6994404 
C     0.0142931   -1.5263046   -4.4471866 
C    -0.6192398   -2.2445269   -5.4662986 
H    -0.7076718   -4.1160386   -6.5671988 
H     1.1678657   -5.1559641   -5.2771562 
H     2.2855783   -3.8845314   -3.4527350 
H    -0.3226803   -0.5112447   -4.2119554 
H    -1.4383576   -1.7822879   -6.0273978 
C     3.2246313    4.9484549   -1.3624635 
C     4.1735038    4.0682952   -0.8232376 
C     3.9664175    2.6848844   -0.8909248 
C     2.8101613    2.1546329   -1.5012360 
C     1.8589895    3.0542477   -2.0349587 
C     2.0639827    4.4356660   -1.9663904 
H     3.3819546    6.0302561   -1.3042020 
H     5.0713733    4.4578707   -0.3328252 
H     4.7097103    2.0028417   -0.4654580 
H     0.9447160    2.6655219   -2.4974196 
H     1.3142266    5.1177511   -2.3813957 
Fe    1.2496606   -2.0648980    2.7361051 
C     0.1856670   -0.3458597    2.4179518 
C    -0.6823498   -1.5095913    2.2834303 
C    -0.6222895   -2.2187828    3.5355876 
C     0.2553039   -1.5207738    4.4270800 
C     0.7572629   -0.3664331    3.7443027 
C     2.9557950   -2.1428571    1.5831581 
C     3.2787406   -2.1723782    2.9814917 
C     2.6317471   -3.3161377    3.5581527 
C     1.9076456   -3.9901695    2.5191064 
C     2.1108456   -3.2626389    1.2983096 
C    -0.9447373    2.0063115    1.1099832 
C    -1.5963974    2.3412274    2.3127675 
C    -2.6831939    3.2283379    2.3158504 
C    -3.1016386    3.7807340    1.0792900 
C    -2.4376414    3.4927425   -0.1350157 
C    -1.3566834    2.5959720   -0.0952393 
C     1.8497058    1.9288704    1.7014592 
C     1.7136011    3.3283742    1.7061559 
C     2.7708433    4.1604686    2.1139717 
C     3.9798767    3.5554655    2.5216436 
C     4.1504256    2.1513627    2.5125537 
C     3.0751889    1.3562399    2.0922480 
C    -1.7481554   -1.7644082    1.2325868 
H    -1.1638685   -3.1408422    3.7582566 
H     0.5208566   -1.8302335    5.4396229 
H     1.4627646    0.3661031    4.1392343 
H     3.2903669   -1.4037788    0.8539153 
H     3.8930746   -1.4492110    3.5208199 
H     2.6667795   -3.6092382    4.6088147 
H     1.3103541   -4.8950764    2.6412554 
H     1.7186179   -3.5214234    0.3172849 
H    -1.2613088    1.8983466    3.2576720 
H    -0.8226757    2.3558389   -1.0198260 
H     0.7814816    3.7921417    1.3702264 
H     3.1848344    0.2714899    2.0776969 
H    -2.1668578   -2.7617041    1.4347107 
H     0.4452540   -3.6753972   -0.9908419 
H    -1.9283564   -1.9116960   -2.6745286 
C    -3.3803025    0.2795267   -3.3301055 
C    -2.5074566    0.0547409   -2.0817046 
C    -2.3794732   -1.4521385   -1.7736041 
C    -3.7752088   -2.0888347   -1.5838511 
C    -4.6189655   -1.8868727   -2.8567883 
C    -4.7569355   -0.3922193   -3.1933916 
H    -2.8592654   -0.1395302   -4.2135213 
H    -3.4938467    1.3633926   -3.5149573 
H    -2.9487389    0.5844184   -1.2182745 
H    -1.4999100    0.4872226   -2.2312209 
H    -3.6999261   -3.1603171   -1.3337872 
H    -4.2940055   -1.6032095   -0.7401914 
H    -4.1365778   -2.4165506   -3.7019385 
H    -5.6150713   -2.3449640   -2.7207568 
H    -5.3274275    0.1083264   -2.3856302 
H    -5.3412723   -0.2587646   -4.1213106 
C    -0.6796344   -5.7458739   -2.3066452 
C    -1.2578733   -4.3345496   -2.0891057 
C    -0.6466609   -3.6990292   -0.8181402 
C    -0.9196385   -4.6037043    0.4029537 
C    -0.3547213   -6.0190898    0.1830414 
C    -0.9203333   -6.6572789   -1.0943973 
H     0.4083159   -5.6634286   -2.4938621 
H    -1.1212031   -6.1809887   -3.2210177 
H    -2.3539763   -4.4129792   -1.9824745 
H    -1.0601486   -3.7174262   -2.9795652 
H    -0.4861705   -4.1601239    1.3144869 
H    -2.0137753   -4.6752891    0.5618355 
H     0.7492958   -5.9593299    0.1079554 
H    -0.5772723   -6.6458382    1.0656790 
H    -2.0085634   -6.8220811   -0.9686039 
H    -0.4670528   -7.6504549   -1.2624278 
C    -2.8941659   -0.7379408    1.4166134 
H    -2.6662771    0.2355763    0.9594230 
H    -3.8378998   -1.1141485    0.9963895 
H    -3.0471969   -0.5662689    2.4956687 
C    -3.3984815    3.6084344    3.5905453 
H    -3.5858900    4.6947354    3.6210676 
H    -4.3839147    3.1110882    3.6594597 
H    -2.8125272    3.3163660    4.4766811 
C    -2.8796168    4.1341945   -1.4291002 
H    -3.6861175    3.5491365   -1.9108637 
H    -3.2717629    5.1479082   -1.2470255 
H    -2.0434212    4.1932767   -2.1454822 
O    -4.1380337    4.6881316    1.0842135 
C    -5.4406001    4.1526716    0.8155998 
H    -6.1419793    4.9982104    0.8740210 
H    -5.4923779    3.7020337   -0.1940289 
H    -5.7222742    3.3880943    1.5646155 
C     2.6337342    5.6636411    2.0749384 
H     2.2997966    6.0630574    3.0510753 
H     3.6016608    6.1341520    1.8365384 
H     1.8914532    5.9685723    1.3197122 
C     5.4784700    1.5491389    2.9061688 
H     5.6570452    1.6404002    3.9934915 
H     5.5241964    0.4791599    2.6443159 
H     6.3076620    2.0765914    2.4045629 
O     5.0718224    4.3395170    2.8285924 
C     5.1414735    4.8343683    4.1732461 
H     6.0732074    5.4154549    4.2413074 
H     4.2824100    5.4896682    4.4100628 
H     5.1712104    4.0028431    4.9029411 
