110
Energy =
C     2.8401603    1.2441939    0.3833932 
C     2.8160978    1.1747636   -1.0281056 
C     2.1245964    2.1457369   -1.8072831 
H     3.2582747    0.3047910   -1.5282756 
Pd    0.7025468    0.9932382   -0.4219507 
P    -1.5006355    1.4574151   -1.1979188 
P     0.0371972   -0.4736164    1.2527676 
H     2.5781293    2.2148670    0.8311996 
H     2.0052516    3.1434785   -1.3605220 
C     5.0512552   -1.2724754    3.0748598 
C     4.9896846   -1.6052018    1.7107329 
C     4.2560158   -0.8117447    0.8247265 
C     3.5719675    0.3397741    1.2819767 
C     3.6373861    0.6553132    2.6598308 
C     4.3686784   -0.1420216    3.5476921 
H     5.6303207   -1.8954890    3.7642582 
H     5.5068952   -2.4950447    1.3408938 
H     4.2247962   -1.0875422   -0.2334294 
H     3.1189286    1.5446232    3.0330134 
H     4.4135927    0.1260114    4.6082493 
C     2.0463721    2.1094508   -6.1185939 
C     2.2105141    0.9060189   -5.4131921 
C     2.2385621    0.9060898   -4.0149741 
C     2.1020943    2.1102828   -3.2836638 
C     1.9626365    3.3155801   -4.0107363 
C     1.9301507    3.3150523   -5.4106211 
H     2.0193013    2.1073784   -7.2128981 
H     2.3141764   -0.0384333   -5.9575073 
H     2.3593130   -0.0448528   -3.4850778 
H     1.8906578    4.2653233   -3.4696101 
H     1.8220411    4.2611545   -5.9508897 
Fe   -2.4169905   -2.7649923   -0.1381558 
C    -1.5647403   -1.2989606    1.0463398 
C    -2.7059515   -0.7376233    0.3500484 
C    -3.8418463   -1.5592027    0.6887629 
C    -3.4286892   -2.5788939    1.6065353 
C    -2.0170942   -2.4446741    1.8091815 
C    -2.7855499   -4.7592928   -0.3266251 
C    -3.5135270   -4.0223186   -1.3212774 
C    -2.5650284   -3.3194825   -2.1303064 
C    -1.2538061   -3.6139526   -1.6298477 
C    -1.3872957   -4.4988789   -0.5113199 
C    -0.0967660    0.3350270    2.9057357 
C     0.2776540    1.6890113    3.0170364 
C     0.1580936    2.3680736    4.2346471 
C    -0.3419727    1.6938903    5.3589747 
C    -0.7397142    0.3507440    5.2574134 
C    -0.6240385   -0.3232150    4.0365243 
C     1.1677499   -1.9085971    1.4379561 
C     1.6833541   -2.3685841    2.6604599 
C     2.4896488   -3.5151812    2.6915803 
C     2.7838703   -4.2007595    1.5049779 
C     2.2871023   -3.7346705    0.2751667 
C     1.4905475   -2.5884310    0.2445813 
C    -2.8727209    0.7102763   -0.0979553 
H    -4.8593011   -1.4024361    0.3231435 
H    -4.0661277   -3.3588559    2.0272140 
H    -1.3833132   -3.0992925    2.4114705 
H    -3.2228414   -5.3822003    0.4557373 
H    -4.5990330   -3.9949974   -1.4321120 
H    -2.8034544   -2.6895677   -2.9859143 
H    -0.3146933   -3.2539897   -2.0485777 
H    -0.5715793   -4.8947871    0.0960152 
H     0.6446060    2.2176354    2.1309653 
H    -0.9622264   -1.3605320    3.9675453 
H     1.4779047   -1.8314250    3.5900662 
H     1.1101101   -2.2061658   -0.7081574 
H    -3.7845802    0.7747761   -0.7134243 
C    -3.1539393    1.4762962    1.2238518 
H    -3.9269733    0.9225300    1.7821228 
H    -2.2600240    1.5253812    1.8655929 
H    -3.5297225    2.4949560    1.0563056 
C    -0.4192866    2.4036724    6.6955782 
F     0.7152335    2.2079173    7.4099475 
F    -0.5746203    3.7382286    6.5415088 
F    -1.4499633    1.9468006    7.4411378 
H     0.4403950    3.4219370    4.3122771 
H    -1.1522637   -0.1608614    6.1318808 
H     2.8964480   -3.8738021    3.6409441 
H     2.5288724   -4.2684950   -0.6487817 
C     3.7122957   -5.3942402    1.5225438 
F     3.3359800   -6.3293289    0.6206222 
F     4.9829010   -5.0232396    1.2006518 
F     3.7634541   -5.9805827    2.7373295 
C    -1.8311473    0.6327279   -2.9081930 
C    -1.8601897    3.3497143   -1.2073785 
C    -1.4619004    1.5273007   -4.1067010 
H    -1.4767481    0.8958900   -5.0138537 
H    -2.1888732    2.3404437   -4.2606922 
H    -0.4504996    1.9520206   -4.0222720 
C    -1.3282209    3.9205950    0.1341414 
H    -1.5465085    5.0035726    0.1667610 
H    -1.7633333    3.4638381    1.0313566 
H    -0.2310731    3.7960975    0.1882022 
C    -0.8785123   -0.5795245   -2.8950518 
H    -1.0534058   -1.2064566   -3.7891111 
H     0.1721596   -0.2463607   -2.9122699 
H    -1.0437528   -1.1902571   -1.9941340 
C    -3.2907355    0.1586662   -3.0669405 
H    -3.4011430   -0.2997544   -4.0671280 
H    -3.5618612   -0.6049547   -2.3197355 
H    -4.0105592    0.9934794   -3.0094906 
C    -1.0370746    4.0579481   -2.3072286 
H    -0.9971865    5.1359816   -2.0680956 
H    -0.0057037    3.6811299   -2.3425718 
H    -1.4770541    3.9600448   -3.3076399 
C    -3.3547336    3.6612782   -1.4353124 
H    -3.4959907    4.7577765   -1.4380744 
H    -3.6926129    3.2831813   -2.4151953 
H    -4.0168455    3.2468634   -0.6596548 
