134
Energy =
C     3.0218564    0.4404640   -1.6997169 
C     2.0385685    0.3676203   -2.7311277 
C     1.1092014    1.4106782   -2.9172658 
H     1.9452749   -0.5484020   -3.3278480 
Pd    0.9683325    0.4129625   -0.8082498 
P    -1.3805788    0.6616161   -0.5085920 
P     1.4882061   -0.2227348    1.3778739 
H     3.2855943    1.4491830   -1.3495429 
H     1.3758029    2.3982115   -2.5118111 
C     6.2898848   -2.3400922   -1.4199089 
C     6.4229166   -1.0282567   -0.9411540 
C     5.3355826   -0.1472962   -0.9990978 
C     4.0960771   -0.5577199   -1.5425408 
C     3.9685464   -1.8927794   -1.9924659 
C     5.0555899   -2.7700667   -1.9371927 
H     7.1397847   -3.0289090   -1.3825622 
H     7.3786908   -0.6868568   -0.5307019 
H     5.4506815    0.8840522   -0.6457356 
H     3.0075586   -2.2462806   -2.3806133 
H     4.9419668   -3.7985734   -2.2950918 
C    -1.8731068    1.5368646   -6.0168663 
C    -1.5138239    0.3040981   -5.4465634 
C    -0.5427234    0.2523602   -4.4417476 
C     0.0812336    1.4297589   -3.9732885 
C    -0.2813379    2.6610443   -4.5623253 
C    -1.2439279    2.7110813   -5.5788627 
H    -2.6445685    1.5831107   -6.7914134 
H    -1.9963342   -0.6183209   -5.7870763 
H    -0.2683013   -0.7065216   -3.9953774 
H     0.1960079    3.5838643   -4.2179359 
H    -1.5181771    3.6743259   -6.0198257 
Fe   -1.3238692   -4.0714156   -1.1021857 
C    -1.0760147   -2.0421334   -1.1236919 
C    -0.4117542   -2.6066435    0.0484565 
C     0.5234856   -3.5986146   -0.4299980 
H     1.1295723   -4.2391301    0.2093414 
C     0.4947896   -3.6204623   -1.8618815 
H     1.0743118   -4.2829667   -2.5077914 
C    -0.4894468   -2.6711699   -2.2869119 
H    -0.8001229   -2.4947755   -3.3180428 
C    -3.1442523   -4.6532582   -1.8470107 
H    -3.8299720   -4.0519974   -2.4461285 
C    -3.1381927   -4.7667866   -0.4163105 
H    -3.8296148   -4.2719064    0.2681891 
C    -2.0819738   -5.6686645   -0.0496102 
H    -1.8088308   -5.9707948    0.9630903 
C    -1.4365968   -6.1081030   -1.2507408 
H    -0.5794910   -6.7816875   -1.3082428 
C    -2.0933674   -5.4814696   -2.3619955 
H    -1.8243014   -5.5959811   -3.4138459 
C    -0.5551365   -2.2732455    1.5041377 
C     0.1977709   -1.2657037    2.1883052 
C     0.0118737   -1.0964047    3.5786997 
H     0.5738525   -0.3217071    4.1080634 
C    -0.8724873   -1.8963521    4.3103102 
H    -0.9988701   -1.7318385    5.3840992 
C    -1.5955296   -2.8948736    3.6503782 
H    -2.3011968   -3.5245556    4.1996683 
C    -1.4358282   -3.0660137    2.2709949 
H    -2.0050297   -3.8313360    1.7433919 
C    -2.3908586    1.1004211    1.0040228 
C    -2.7267517    2.4470647    1.2561160 
H    -2.3825752    3.2509638    0.6037948 
C    -3.5272710    2.7989472    2.3487619 
C    -4.0622487    1.8148902    3.1885238 
H    -4.7400592    2.0860959    4.0020230 
C    -3.7378309    0.4748218    2.9426377 
C    -2.8809147    0.1211302    1.8889456 
H    -2.6280359   -0.9300025    1.7557630 
C    -1.9413104    2.0533274   -1.5788525 
C    -1.2288488    3.2540298   -1.4219946 
H    -0.3469476    3.2849917   -0.7713112 
C    -1.6387112    4.4195705   -2.0810996 
C    -2.7370049    4.3907580   -2.9468771 
H    -3.0415815    5.2924394   -3.4842320 
C    -3.4149504    3.1774311   -3.1461650 
C    -3.0388592    2.0168710   -2.4545525 
H    -3.6008232    1.0957225   -2.6257567 
C    -2.1062360   -0.9257585   -1.2333212 
H    -2.1203850   -0.6473905   -2.3033520 
C    -3.5467709   -1.2817759   -0.8209178 
H    -3.9685724   -1.9674229   -1.5716542 
H    -3.5806070   -1.7945119    0.1507020 
H    -4.1916198   -0.3884036   -0.7630473 
C    -0.8057186    5.6655584   -1.8889441 
F    -1.3954497    6.7662854   -2.3843229 
F    -0.5435041    5.8772962   -0.5741725 
F     0.4037567    5.5283651   -2.5071778 
C    -4.5791501    3.1362037   -4.1154898 
F    -4.8544289    1.8694146   -4.5091424 
F    -5.7015351    3.6446716   -3.5619694 
F    -4.3127492    3.8626142   -5.2279935 
C    -3.8026286    4.2637366    2.6202518 
F    -4.9912874    4.4452774    3.2297421 
F    -2.8485186    4.7938303    3.4318864 
F    -3.7985529    4.9904294    1.4780324 
C    -4.3572503   -0.5991851    3.8135044 
F    -4.4239541   -1.7898553    3.1633430 
F    -3.6497556   -0.8029095    4.9532590 
F    -5.6114778   -0.2644313    4.1829038 
H     1.9419746    1.1048915    3.3797739 
C     0.5174704    3.4906892    3.2212634 
C     0.3275318    2.1818625    2.4366112 
C     1.6348861    1.3782082    2.3532309 
C     2.7541101    2.2448509    1.7254480 
C     2.9438826    3.5612041    2.5013129 
C     1.6290180    4.3516534    2.6014631 
H     0.7750386    3.2506745    4.2715743 
H    -0.4374589    4.0428050    3.2491072 
H     0.0063069    2.4258435    1.4064207 
H    -0.4762225    1.5749741    2.8859395 
H     3.7075949    1.6881778    1.6771946 
H     2.4652853    2.4753869    0.6797662 
H     3.3135595    3.3306282    3.5195984 
H     3.7270821    4.1668755    2.0110524 
H     1.3142974    4.6771282    1.5890963 
H     1.7795551    5.2715386    3.1933128 
H     3.8500907   -0.5878181    1.1384808 
C     4.3727286   -3.3086656    1.5975634 
C     3.0449008   -2.5762628    1.3420424 
C     3.1080184   -1.1016719    1.7780154 
C     3.5538937   -0.9846374    3.2526321 
C     4.8890068   -1.7203765    3.4846311 
C     4.8049034   -3.1951885    3.0658865 
H     5.1531803   -2.8718285    0.9490293 
H     4.2693528   -4.3676928    1.2983103 
H     2.2380178   -3.0785618    1.9101365 
H     2.7808173   -2.6296851    0.2740570 
H     3.6708824    0.0716097    3.5495908 
H     2.7781704   -1.4267311    3.9073704 
H     5.6831921   -1.2173581    2.8985657 
H     5.1731557   -1.6298213    4.5484034 
H     4.0717132   -3.7183193    3.7113130 
H     5.7777863   -3.6943898    3.2218286 
