94
Energy =
C    -1.7135881    2.2350235    1.2599076 
C    -0.7619194    1.8436363    2.2318213 
C     0.6120384    2.2167621    2.1037283 
H    -1.0468972    1.1082148    2.9942935 
Pd   -0.0058002    1.0153751    0.3404664 
P     2.1372816    0.3700819   -0.2889040 
P    -1.3305656   -0.2898917   -1.0730845 
H    -1.4571489    3.1017624    0.6305596 
H     0.8331331    3.1740820    1.6094754 
C    -5.8297242    1.0476418    0.9415986 
C    -5.0280115    0.4944130    1.9538839 
C    -3.6894166    0.8752894    2.0814490 
C    -3.1246186    1.8306951    1.2042004 
C    -3.9522110    2.3953508    0.2049521 
C    -5.2873627    2.0023192    0.0684716 
H    -6.8768345    0.7427050    0.8424401 
H    -5.4469946   -0.2437434    2.6447649 
H    -3.0809229    0.4218404    2.8684697 
H    -3.5359356    3.1434969   -0.4763740 
H    -5.9061153    2.4475933   -0.7173361 
C     3.8410998    0.6463111    4.4806336 
C     2.6456708   -0.0821015    4.3597098 
C     1.5856683    0.4253300    3.6039081 
C     1.6925821    1.6783598    2.9544447 
C     2.8974227    2.4027335    3.0925106 
C     3.9607263    1.8909972    3.8463236 
H     4.6728837    0.2435784    5.0676901 
H     2.5464709   -1.0568871    4.8478689 
H     0.6748652   -0.1715589    3.4895544 
H     3.0011233    3.3729010    2.5969274 
H     4.8852178    2.4704229    3.9397150 
Fe    1.1995390   -1.4139441   -3.0275531 
C     2.3755657   -0.1367299   -2.0154630 
C     1.7472523    0.5273369   -3.1380315 
H     1.0729997    1.3844844   -3.0782498 
C     2.1511143   -0.1548735   -4.3320598 
H     1.8262395    0.0859996   -5.3457956 
C     3.0173615   -1.2366130   -3.9603275 
H     3.4618630   -1.9630318   -4.6431830 
C     3.1621337   -1.2327431   -2.5341937 
C    -0.6201560   -1.5596079   -2.1683614 
C     0.2389451   -2.6360582   -1.7270852 
H     0.5326452   -2.8310150   -0.6949337 
C     0.6385822   -3.3779512   -2.8863478 
H     1.3084892   -4.2396192   -2.8921825 
C     0.0418839   -2.7680433   -4.0396154 
H     0.1794815   -3.0846740   -5.0751161 
C    -0.7356858   -1.6444414   -3.6055372 
H     3.7356624   -1.9413890   -1.9342741 
H    -1.3031060   -0.9612328   -4.2392838 
C     2.6558275   -1.0225194    0.7342241 
C     3.8581252   -1.5578310    1.1433786 
C     3.5443006   -2.6799823    1.9728637 
C     2.1710104   -2.7694076    2.0263806 
H     4.8431586   -1.1710393    0.8883300 
H     4.2486742   -3.3409784    2.4781977 
O     1.6193975   -1.7658660    1.2742242 
C     1.2193575   -3.6793715    2.7237714 
H     0.6298391   -3.1307556    3.4818525 
H     0.5075080   -4.1356979    2.0130705 
H     1.7730727   -4.4830607    3.2319988 
C     3.3957983    1.6436919   -0.0249576 
C     3.3433753    3.0042530   -0.2457068 
C     4.6462875    3.5147894    0.0522214 
C     5.4166895    2.4385694    0.4365923 
H     2.4702536    3.5682109   -0.5762525 
H     4.9772279    4.5518798   -0.0024715 
O     4.6626820    1.2949169    0.3782229 
C     6.8271836    2.2849151    0.8894367 
H     6.8683617    1.8524634    1.9053878 
H     7.3903467    1.6143381    0.2156648 
H     7.3253462    3.2659852    0.9032054 
C    -2.3924469   -1.2506979    0.0328325 
C    -2.0611916   -1.8407428    1.2376189 
C    -3.1988623   -2.6109416    1.6336745 
C    -4.1521505   -2.4425349    0.6503896 
H    -1.1083896   -1.7254498    1.7556386 
H    -3.3115902   -3.2112817    2.5365771 
C    -2.3806873    0.6981064   -2.1463862 
C    -2.1865991    1.9710633   -2.6450906 
C    -3.3114824    2.2563170   -3.4796614 
C    -4.1244942    1.1417197   -3.4402016 
H    -1.3417811    2.6231167   -2.4188724 
H    -3.5060583    3.1718576   -4.0381876 
O    -3.6601386   -1.6254688   -0.3312079 
O    -3.5561028    0.1864322   -2.6436543 
C    -5.5433382   -2.9407571    0.4654520 
H    -6.2525540   -2.0968637    0.3916744 
H    -5.6318787   -3.5342255   -0.4620281 
H    -5.8330312   -3.5736137    1.3178823 
C    -5.4390450    0.8022577   -4.0530708 
H    -6.1932440    0.6029385   -3.2705371 
H    -5.7897625    1.6365356   -4.6789916 
H    -5.3619229   -0.1038581   -4.6799612 
