124
Energy =
C     3.3620945   -0.4127765   -0.2668484 
C     2.9889810   -0.9975191   -1.5049504 
C     2.4397904   -0.2011742   -2.5512738 
H     2.9876379   -2.0909950   -1.6044262 
Pd    1.1841533   -0.0697085   -0.6844483 
P    -0.8823662    0.5268106   -1.6129859 
P     0.4061735   -0.0106587    1.5086401 
H     3.6414363    0.6527152   -0.2805444 
H     2.7263307    0.8615594   -2.5723770 
C     4.8401528   -2.5448651    3.1652268 
C     5.2877832   -1.2469468    2.8796374 
C     4.7905547   -0.5593102    1.7652052 
C     3.8529389   -1.1675966    0.9021022 
C     3.4140923   -2.4799409    1.1963676 
C     3.8996561   -3.1573543    2.3196746 
H     5.2111208   -3.0711462    4.0498892 
H     6.0129226   -0.7616651    3.5397918 
H     5.1277399    0.4624994    1.5589005 
H     2.6773736   -2.9696472    0.5507079 
H     3.5421275   -4.1688178    2.5394492 
C     1.3016716   -1.8237303   -6.3608086 
C     1.7861675   -0.5116100   -6.2607623 
C     2.1110066    0.0218741   -5.0077645 
C     1.9824339   -0.7568533   -3.8354193 
C     1.4621216   -2.0677335   -3.9478126 
C     1.1294751   -2.5940314   -5.1986603 
H     1.0456275   -2.2424211   -7.3394231 
H     1.9141302    0.0974340   -7.1615289 
H     2.4986598    1.0442032   -4.9332622 
H     1.3022730   -2.6735491   -3.0487149 
H     0.7249955   -3.6087240   -5.2690432 
Fe   -2.7649030    1.2991044    2.6651214 
C    -0.9708340    1.1471179    1.7243153 
C    -2.0578411    1.2576483    0.7609073 
C    -2.7268934    2.5044700    1.0186522 
C    -2.0877785    3.1492770    2.1261215 
C    -1.0117196    2.3190098    2.5750778 
C    -4.5658367    0.3235886    2.7644550 
C    -3.5329888   -0.4748032    3.3551423 
C    -2.9540222    0.2791084    4.4338830 
C    -3.6279577    1.5423017    4.5033146 
C    -4.6232259    1.5709941    3.4705371 
C     1.6431919    0.5382030    2.7463347 
C     2.2442401    1.7800218    2.4721050 
C     3.2487356    2.2804496    3.3085147 
C     3.6605274    1.5565012    4.4350100 
C     3.0699671    0.3119843    4.6971101 
C     2.0752728   -0.2070936    3.8557343 
C    -0.1437802   -1.6955978    1.9752802 
C    -0.1129644   -2.6779338    0.9725138 
C    -0.4944587   -3.9947106    1.2558613 
C    -0.8986378   -4.3522390    2.5501779 
C    -0.9371689   -3.3673240    3.5488969 
C    -0.5787942   -2.0413652    3.2638807 
C    -2.3200932    0.3010351   -0.3714416 
H    -3.5998247    2.8816766    0.4849797 
H    -2.3991161    4.0904235    2.5829753 
H    -0.3369558    2.5273758    3.4064528 
H    -5.1965616    0.0360351    1.9218244 
H    -3.2505058   -1.4818818    3.0485735 
H    -2.1587819   -0.0502793    5.1042877 
H    -3.4066694    2.3497235    5.2036448 
H    -5.2884817    2.4061058    3.2436422 
H     1.9384258    2.3598589    1.5945664 
H     1.6769214   -1.2015660    4.0663561 
H     0.2248628   -2.4039801   -0.0355796 
H    -0.6354054   -1.2840379    4.0493322 
H    -2.2010805   -0.7358437   -0.0049443 
C    -3.7047538    0.4672496   -1.0094235 
H    -4.4789514    0.3390871   -0.2342717 
H    -3.8269191    1.4715131   -1.4464588 
H    -3.8720409   -0.2776689   -1.8025218 
C     3.9453805    3.5593892    2.9013908 
F     4.6502135    4.1064314    3.9077047 
F     4.8082757    3.3190602    1.8746617 
F     3.0588255    4.4845898    2.4532267 
C     3.5171382   -0.4725996    5.9141381 
F     3.1274208   -1.7671514    5.8492613 
F     4.8663676   -0.4543819    6.0405869 
F     3.0017284    0.0528032    7.0481646 
C    -0.4913259   -4.9952479    0.1227069 
F    -0.4900352   -6.2672956    0.5541804 
F    -1.5900244   -4.8272035   -0.6657717 
F     0.5921334   -4.8186997   -0.6812719 
C    -1.3817831   -3.6955203    4.9595730 
F    -0.4639945   -3.2691754    5.8601906 
F    -2.5467910   -3.0614389    5.2525783 
F    -1.5712547   -5.0152167    5.1428035 
H     4.4506144    1.9452045    5.0827770 
H    -1.1766485   -5.3834276    2.7818238 
C    -2.1692569   -1.8679864   -5.3372138 
C    -2.2284679   -2.4734969   -4.0662901 
C    -1.8369380   -1.7155500   -2.9504494 
C    -1.4059643   -0.3786376   -3.1033725 
C    -1.3188098    0.1863476   -4.3881938 
C    -1.7143750   -0.5506993   -5.5203570 
H    -2.4673742   -2.4527026   -6.2158574 
H    -1.8647197   -2.1810261   -1.9573920 
H    -0.9378795    1.2042040   -4.5170131 
C    -2.7039552   -3.9015660   -3.9161830 
H    -2.3671580   -4.3447879   -2.9661383 
H    -3.8088552   -3.9500794   -3.9391336 
H    -2.3350674   -4.5310706   -4.7441957 
C    -1.6658741    0.0726587   -6.8964415 
H    -1.4758794   -0.6848696   -7.6747920 
H    -2.6296765    0.5601298   -7.1364745 
H    -0.8777807    0.8410427   -6.9601461 
C    -0.9748028    5.1245709   -1.9516974 
C    -1.9243820    4.4022622   -2.7058953 
C    -1.8855621    2.9970253   -2.6706994 
C    -0.8987424    2.3303616   -1.9143741 
C     0.0478518    3.0810098   -1.1931931 
C     0.0163865    4.4871468   -1.1857983 
H    -1.0110757    6.2207872   -1.9662694 
H    -2.6251363    2.4253885   -3.2411416 
H     0.8125041    2.5508541   -0.6082999 
C    -2.9542481    5.1319666   -3.5397419 
H    -3.4554023    5.9218616   -2.9532852 
H    -2.4760431    5.6251847   -4.4060725 
H    -3.7252129    4.4451347   -3.9256644 
C     1.0000727    5.2658956   -0.3405363 
H     0.7054697    5.2308114    0.7252422 
H     2.0167687    4.8408681   -0.4061853 
H     1.0478900    6.3249800   -0.6409479 
