110
Energy =
C    -2.1139489   -0.0036973   -2.2658921 
C    -0.8745904    0.0309426   -2.9670894 
C    -0.0411018   -1.1048619   -2.9866184 
H    -0.5412017    0.9640555   -3.4371533 
Pd   -0.3772793   -0.2397524   -0.8243525 
P     1.8310432   -0.4046409    0.0212022 
P    -1.6303364    0.0920393    1.1904952 
H    -2.5819644   -0.9909088   -2.1576416 
H    -0.4995637   -2.0552184   -2.6777404 
C    -4.8775347    3.2888121   -2.0933450 
C    -3.5013920    3.5397500   -2.2303572 
C    -2.5935797    2.4779695   -2.2919882 
C    -3.0435978    1.1375030   -2.2232427 
C    -4.4320389    0.9005035   -2.0984340 
C    -5.3393599    1.9654857   -2.0317584 
H    -5.5853280    4.1220704   -2.0385385 
H    -3.1355506    4.5706971   -2.2772413 
H    -1.5202952    2.6870519   -2.3583877 
H    -4.7991941   -0.1314380   -2.0593337 
H    -6.4107512    1.7619502   -1.9347965 
C     3.6116234   -1.6883661   -5.1688728 
C     2.9161770   -2.7774281   -4.6213310 
C     1.7262153   -2.5638097   -3.9175783 
C     1.2044821   -1.2586793   -3.7453372 
C     1.9045473   -0.1739094   -4.3260557 
C     3.0962909   -0.3887224   -5.0246909 
H     4.5462125   -1.8505033   -5.7152888 
H     3.3040838   -3.7940977   -4.7402136 
H     1.1899263   -3.4137764   -3.4815229 
H     1.5197881    0.8455042   -4.2288408 
H     3.6286242    0.4619606   -5.4623321 
Fe    0.9533973   -0.6921502    3.2567217 
C    -0.7300864    0.2989977    2.7708310 
C     0.3600010    1.2220569    3.0025692 
H     0.7502252    1.9356762    2.2808290 
C     0.8372809    1.0463960    4.3407171 
H     1.6697866    1.5847722    4.7966209 
C     0.0556792    0.0181142    4.9583339 
H     0.1882834   -0.3722936    5.9688348 
C    -0.9069695   -0.4472244    4.0047191 
C     1.9628477   -1.2677108    1.6192435 
C     1.0668233   -2.3153299    2.0616650 
H     0.2453559   -2.7316893    1.4774398 
C     1.4269641   -2.6819604    3.3981514 
H     0.9178600   -3.4224429    4.0175171 
C     2.5424710   -1.8747786    3.7970033 
H     3.0315774   -1.8936819    4.7725805 
C     2.8813854   -1.0057679    2.7090250 
H    -1.6296336   -1.2425349    4.1878527 
H     3.6835842   -0.2657167    2.7154901 
C     2.6203139    1.2787700    0.3840315 
C     4.0733272    1.1511184   -0.1318395 
C     4.0807913    0.2318651   -1.3620869 
C     3.2590854   -1.0473411   -1.0647198 
H     2.6145672    1.3490988    1.4840040 
H     4.5028004    2.1426900   -0.3627735 
H     4.7060477    0.7106591    0.6605802 
H     3.6180107    0.7486436   -2.2187224 
H     5.1066043   -0.0206515   -1.6752902 
H     2.8033833   -1.3938515   -2.0041348 
C    -2.7582536   -1.3747687    1.6247030 
C    -3.8943637   -0.6641950    2.3955480 
C    -4.3216332    0.5498476    1.5621931 
C    -3.0569882    1.3556054    1.1458727 
H    -2.1788274   -2.0440878    2.2861939 
H    -4.7341377   -1.3482902    2.6029226 
H    -3.5171092   -0.3195520    3.3741926 
H    -4.8531845    0.2143858    0.6538396 
H    -5.0244485    1.1950266    2.1172329 
H    -3.1250450    1.5901962    0.0733500 
C    -2.9181933    2.7305013    1.8596332 
H    -3.8457748    3.2559200    1.5534280 
C    -3.2197298   -2.2045130    0.3934252 
H    -3.5325170   -1.4976295   -0.3981689 
C     1.7939147    2.4870909   -0.1421308 
C     4.0174905   -2.2637211   -0.4598709 
H     4.2415101   -2.0637978    0.6047251 
H     0.7454091    2.2927398    0.1604389 
C    -2.9197868    2.6891768    3.3975605 
H    -2.9918400    3.7157439    3.7971170 
H    -3.7820514    2.1239069    3.7917692 
H    -2.0011405    2.2369724    3.8029715 
C    -1.7482137    3.5598122    1.3068417 
H    -0.7760101    3.1332099    1.6018664 
H    -1.7801553    3.6079131    0.2050202 
H    -1.7834701    4.5914963    1.6975915 
C    -4.4317218   -3.1005868    0.7140407 
H    -4.2224678   -3.7575040    1.5782745 
H    -5.3382146   -2.5148316    0.9392563 
H    -4.6630128   -3.7469157   -0.1503346 
C    -2.0692043   -3.0647939   -0.1528806 
H    -2.3588027   -3.5721461   -1.0898446 
H    -1.1697029   -2.4481474   -0.3648458 
H    -1.7819080   -3.8431792    0.5776047 
C     5.3549360   -2.5248100   -1.1797629 
H     5.8010164   -3.4659141   -0.8136602 
H     5.2028322   -2.6229144   -2.2706323 
H     6.0915934   -1.7229127   -1.0048146 
C     3.1349546   -3.5236356   -0.5472172 
H     2.1232587   -3.3534048   -0.1416834 
H     3.0250575   -3.8360912   -1.6010897 
H     3.5840023   -4.3617182    0.0124551 
C     1.7796370    2.6369090   -1.6702184 
H     1.0849120    3.4417385   -1.9679081 
H     2.7764888    2.8936159   -2.0698432 
H     1.4424664    1.7025822   -2.1528061 
C     2.2450018    3.7914520    0.5382875 
H     1.6071706    4.6353827    0.2231734 
H     2.1858775    3.7151637    1.6392289 
H     3.2882092    4.0434536    0.2760376 
