116
Energy =
C     2.4479179   -0.7204085   -1.7919463 
C     1.5485283   -1.2276127   -2.7967057 
C     0.7017586   -0.3835388   -3.5215420 
H     1.5125461   -2.3099310   -2.9744312 
Pd    0.3823558   -0.4355582   -1.0599475 
P    -1.9514734   -0.7939652   -0.6161630 
P     0.8479824    0.8768462    0.8326960 
H     2.8641201    0.2804277   -1.9661771 
H     0.8494894    0.6989061   -3.3926376 
C     5.0198008   -3.4311626    0.3611412 
C     3.7101268   -3.8171722    0.0299160 
C     2.8766977   -2.9429309   -0.6756914 
C     3.3301770   -1.6591537   -1.0646928 
C     4.6553702   -1.2948605   -0.7410582 
C     5.4899633   -2.1690360   -0.0334012 
H     5.6712553   -4.1130063    0.9171742 
H     3.3359023   -4.8012444    0.3310713 
H     1.8455349   -3.2430248   -0.8968639 
H     5.0369195   -0.3165186   -1.0536750 
H     6.5142266   -1.8659883    0.2075622 
C    -1.8704761   -1.3371047   -6.8168457 
C    -1.6447820   -0.0035131   -6.4429479 
C    -0.8025611    0.2856330   -5.3648583 
C    -0.1650738   -0.7510676   -4.6388815 
C    -0.3840514   -2.0908225   -5.0454511 
C    -1.2330382   -2.3773906   -6.1169837 
H    -2.5326760   -1.5679951   -7.6574899 
H    -2.1278182    0.8108383   -6.9923088 
H    -0.6351654    1.3268124   -5.0673566 
H     0.1097519   -2.9126864   -4.5190393 
H    -1.3959079   -3.4176112   -6.4169343 
Fe   -1.6756985    2.3579523    2.9983293 
C    -0.6910312    1.7746455    1.2926516 
C    -2.0128288    1.1703412    1.3516340 
C    -2.9813057    2.2309460    1.4539003 
C    -2.2876758    3.4845753    1.4299028 
C    -0.8839834    3.2134527    1.3468497 
C    -2.8797074    2.2088518    4.6405226 
C    -1.7747715    1.3018638    4.7601610 
C    -0.5628026    2.0720938    4.7040476 
C    -0.9175884    3.4519306    4.5500005 
C    -2.3503104    3.5376532    4.5140226 
C    -2.2982792   -0.2983640    1.1966251 
H    -4.0600559    2.1072031    1.5584116 
H    -2.7429067    4.4733011    1.5088879 
H    -0.1053087    3.9760328    1.3329694 
H    -3.9372876    1.9385477    4.6379755 
H    -1.8455079    0.2208257    4.8929656 
H     0.4520595    1.6801091    4.7755580 
H    -0.2221362    4.2888355    4.4651706 
H    -2.9351342    4.4504892    4.3874082 
H    -1.4715274   -0.8389053    1.6813937 
C    -3.5971480   -0.7271170    1.9016982 
H    -3.5715023   -0.3158773    2.9258910 
H    -4.5055921   -0.3509044    1.4110715 
H    -3.6775055   -1.8215076    1.9797822 
C    -2.2253549   -2.6976628   -0.6521987 
C    -3.1671765    0.1401225   -1.7645528 
C    -3.7035663   -3.1384282   -0.6063815 
H    -3.7435919   -4.2427622   -0.5607280 
H    -4.2393980   -2.7509550    0.2724733 
H    -4.2529259   -2.8285681   -1.5094049 
C    -3.3087459   -0.6132080   -3.1026478 
H    -3.8247350    0.0444929   -3.8253909 
H    -2.3336467   -0.8739369   -3.5368714 
H    -3.9107867   -1.5303609   -3.0032321 
C    -1.5633679   -3.2658744   -1.9280503 
H    -1.6360349   -4.3690279   -1.9097682 
H    -2.0414944   -2.9128581   -2.8526100 
H    -0.4938956   -2.9952687   -1.9682197 
C    -1.4543873   -3.2742442    0.5608492 
H    -1.4330170   -4.3761967    0.4800577 
H    -0.4078090   -2.9162547    0.5750557 
H    -1.9234328   -3.0253039    1.5265102 
C    -4.5709190    0.3503684   -1.1627400 
H    -5.2037797    0.8538245   -1.9169597 
H    -5.0609409   -0.6012362   -0.9006182 
H    -4.5447696    0.9971255   -0.2738166 
C    -2.5028031    1.5131198   -2.0358832 
H    -3.1549415    2.1031578   -2.7062032 
H    -2.3491162    2.0924726   -1.1112673 
H    -1.5238973    1.3866642   -2.5290160 
H     1.6848060    3.0927573    1.2090341 
C     2.2494109    4.2437640   -1.2766235 
C     1.5015334    2.9400743   -0.9514481 
C     1.9341936    2.3608678    0.4164042 
C     3.4599366    2.1550131    0.4743593 
C     4.2024701    3.4607841    0.1268826 
C     3.7703194    4.0301680   -1.2327473 
H     1.9635607    5.0223525   -0.5417530 
H     1.9344590    4.6155027   -2.2682690 
H     1.7254197    2.1882735   -1.7329165 
H     0.4086781    3.0984322   -0.9785190 
H     3.7640784    1.8246293    1.4811528 
H     3.7595217    1.3593893   -0.2300241 
H     3.9982016    4.2104272    0.9167160 
H     5.2916424    3.2765447    0.1438803 
H     4.0617686    3.3241317   -2.0361724 
H     4.3005006    4.9770778   -1.4375822 
H     1.8082936    0.9737411    3.0374889 
C     3.4026649   -1.2939398    3.4375597 
C     2.8184435   -0.7404297    2.1255486 
C     1.5575061    0.1060905    2.3933974 
C     0.5198256   -0.7739824    3.1168678 
C     1.0784228   -1.3383049    4.4354690 
C     2.3695365   -2.1378855    4.1994194 
H     3.7384192   -0.4522946    4.0756013 
H     4.2993076   -1.8956849    3.2055056 
H     2.5347861   -1.5835876    1.4723115 
H     3.5887579   -0.1773756    1.5817416 
H    -0.3993710   -0.1956529    3.2965985 
H     0.2601007   -1.6202968    2.4510388 
H     1.2854935   -0.5026048    5.1323737 
H     0.3110806   -1.9682709    4.9214049 
H     2.1327887   -3.0417860    3.6037733 
H     2.7861110   -2.4902600    5.1597782 
