112
Energy =
C     2.6338082    0.1038864   -2.0945089 
C     1.6895811    0.9505912   -2.7135029 
C     1.2009207    2.1333537   -2.0753148 
H     1.2089312    0.6171093   -3.6416145 
Pd    0.7303987    0.3282136   -0.8347600 
P    -0.8478180    1.1822666    0.6461370 
P     0.4965124   -1.8950383   -0.2075633 
H     3.2220881    0.5272862   -1.2651043 
H     1.8958007    2.6671723   -1.4109389 
C     4.3916705   -3.4491035   -3.7613835 
C     4.7587062   -2.9985453   -2.4844596 
C     4.1678535   -1.8472118   -1.9517651 
C     3.1888656   -1.1283119   -2.6769417 
C     2.8175125   -1.6054919   -3.9554962 
C     3.4189668   -2.7471516   -4.4922676 
H     4.8622388   -4.3410420   -4.1877659 
H     5.5164883   -3.5372998   -1.9062018 
H     4.4705093   -1.4925551   -0.9612665 
H     2.0618787   -1.0774120   -4.5441880 
H     3.1252296   -3.0943160   -5.4878239 
C    -1.8905535    4.5683184   -3.8472023 
C    -1.8674370    3.1830724   -4.0787741 
C    -0.8762421    2.3861470   -3.4961851 
C     0.1320436    2.9570308   -2.6833334 
C     0.1041400    4.3542513   -2.4746765 
C    -0.8994809    5.1496195   -3.0423709 
H    -2.6716139    5.1896417   -4.2968958 
H    -2.6315850    2.7212751   -4.7125941 
H    -0.8951411    1.3024078   -3.6574947 
H     0.8879871    4.8243097   -1.8710974 
H    -0.8993701    6.2303385   -2.8661239 
Fe   -0.9871129   -1.0438312    3.5387591 
C    -1.5284463   -0.0118908    1.8397363 
C    -1.6776183   -1.4520981    1.6557789 
C    -2.5977340   -1.9148439    2.6684359 
C    -3.0028280   -0.8035057    3.4732719 
C    -2.3354775    0.3623386    2.9848457 
C     0.2089285   -0.2071374    4.9749329 
C    -0.7389357   -1.1116880    5.5584803 
C    -0.5291266   -2.4098988    4.9803990 
C     0.5515757   -2.3108002    4.0431462 
C     1.0068336   -0.9524113    4.0426113 
C    -1.2033980   -2.3176167    0.5070568 
H    -2.9156702   -2.9463132    2.8211020 
H    -3.6668454   -0.8484583    4.3384564 
H    -2.4252039    1.3654237    3.4041785 
H     0.3045255    0.8561219    5.2022208 
H    -1.5048009   -0.8540298    6.2923462 
H    -1.1089859   -3.3082246    5.2004006 
H     0.9614326   -3.1209408    3.4409133 
H     1.8284016   -0.5630150    3.4444432 
H    -1.9460230    2.5656906   -0.9548198 
C    -4.5783724    3.0538765   -0.2000913 
C    -3.4083292    2.5260970    0.6525026 
C    -2.3631491    1.8277174   -0.2410211 
C    -3.0118670    0.6855352   -1.0542988 
C    -4.2089625    1.1920057   -1.8781798 
C    -5.2385769    1.9169138   -0.9965675 
H    -4.2002229    3.8254293   -0.8991439 
H    -5.3183111    3.5495113    0.4536791 
H    -3.7999052    1.8009777    1.3897457 
H    -2.9500901    3.3536195    1.2227912 
H    -2.2533543    0.2283519   -1.7184364 
H    -3.3524268   -0.1038327   -0.3555092 
H    -3.8373827    1.8905936   -2.6505055 
H    -4.6796247    0.3447471   -2.4093559 
H    -5.6927618    1.1941192   -0.2901118 
H    -6.0617892    2.3108507   -1.6188811 
H    -0.9424712    2.7050783    2.5187398 
C     0.4585498    5.0147790    1.9008564 
C    -0.0590738    3.9149380    0.9545480 
C    -0.2016301    2.5788040    1.7054445 
C     1.1472599    2.1718519    2.3307172 
C     1.6711281    3.2615988    3.2803026 
C     1.7891550    4.6159806    2.5613291 
H    -0.3011035    5.2043295    2.6846217 
H     0.5739214    5.9598690    1.3401698 
H     0.6617117    3.7758769    0.1308472 
H    -1.0107642    4.2271871    0.4921568 
H     1.0257983    1.2114045    2.8515974 
H     1.8779828    2.0060393    1.5116773 
H     0.9747875    3.3583415    4.1369704 
H     2.6469736    2.9569433    3.7000884 
H     2.5737331    4.5439696    1.7817436 
H     2.1172498    5.3998827    3.2667291 
H    -1.8310174   -2.0527400   -0.3684931 
C    -1.3872918   -3.8206488    0.7757937 
H    -2.4599422   -4.0568405    0.8758962 
H    -0.9956918   -4.4250033   -0.0591329 
H    -0.8823460   -4.1173371    1.7097215 
C     0.1681172   -4.3085327   -4.1820025 
C    -0.6414544   -3.1889681   -3.9325551 
C    -0.5038654   -2.4785386   -2.7340356 
C     0.4389640   -2.8847373   -1.7610734 
C     1.2716193   -3.9850520   -2.0360135 
C     1.1285822   -4.6943289   -3.2379387 
H     0.0593760   -4.8678300   -5.1168558 
H    -1.3818511   -2.8678261   -4.6726594 
H    -1.1313193   -1.5969306   -2.5535436 
H     2.0517324   -4.2816524   -1.3310120 
H     1.7860300   -5.5462870   -3.4381148 
C     4.0026536   -3.5146437    2.3837387 
C     3.0332521   -4.4187718    1.9215678 
C     1.9537746   -3.9668560    1.1499475 
C     1.8331554   -2.5953728    0.8293428 
C     2.8151735   -1.6980150    1.2969363 
C     3.8920643   -2.1523271    2.0702577 
H     4.8421884   -3.8729508    2.9881113 
H     3.1162313   -5.4833327    2.1635180 
H     1.2125841   -4.6884951    0.7991005 
H     2.7214903   -0.6334162    1.0512502 
H     4.6433278   -1.4416360    2.4298757 
