122
Energy =
C     3.2797369    1.3495242   -1.0373313 
C     2.2587675    2.2081152   -1.4881430 
C     1.4551057    2.9764513   -0.5891833 
H     2.0019004    2.2223213   -2.5556161 
Pd    1.1074860    0.8045717   -0.2271021 
P    -0.9236514    0.9458144    1.0329768 
P     1.4454456   -1.5303825   -0.2599842 
H     3.6007518    1.4485595    0.0098216 
H     1.9237624    3.2935795    0.3537907 
C     5.9749416   -0.9139890   -3.5096430 
C     5.9847258   -1.0662038   -2.1154261 
C     5.1145721   -0.3135729   -1.3196207 
C     4.1965458    0.5911576   -1.9023598 
C     4.2209168    0.7554612   -3.3090071 
C     5.0989067    0.0115813   -4.1010876 
H     6.6579018   -1.4998405   -4.1333076 
H     6.6768414   -1.7701029   -1.6421792 
H     5.1385423   -0.4302508   -0.2326315 
H     3.5540880    1.4781040   -3.7904365 
H     5.1059242    0.1566320   -5.1863231 
C    -1.6432637    5.5841517   -2.0675063 
C    -1.5216440    4.2779686   -2.5717391 
C    -0.5114036    3.4331867   -2.0999456 
C     0.3952396    3.8722449   -1.1090017 
C     0.2720646    5.1916410   -0.6224790 
C    -0.7379299    6.0394575   -1.0973741 
H    -2.4369722    6.2438526   -2.4325819 
H    -2.2226524    3.9175494   -3.3326418 
H    -0.4356236    2.4048458   -2.4701240 
H     0.9809508    5.5559004    0.1287212 
H    -0.8175992    7.0597174   -0.7080159 
Fe   -3.1294367   -1.4865680   -2.5098064 
C    -1.9821610   -0.2953118   -1.2842212 
C    -1.4910292   -1.6653232   -1.2873585 
C    -1.1925663   -2.0152519   -2.6576860 
H    -0.8186282   -2.9837823   -2.9902236 
C    -1.4653819   -0.8828130   -3.4901129 
H    -1.3593628   -0.8466859   -4.5758010 
C    -1.9582134    0.1678442   -2.6496094 
H    -2.3094032    1.1465350   -2.9819638 
C    -5.1247776   -1.0006907   -2.5388233 
H    -5.5752627   -0.0595958   -2.2175117 
C    -4.9105259   -2.1634870   -1.7252062 
H    -5.1841788   -2.2669710   -0.6738654 
C    -4.2953718   -3.1713979   -2.5423253 
H    -3.9919716   -4.1689941   -2.2193726 
C    -4.1366655   -2.6333834   -3.8620067 
H    -3.6783234   -3.1434843   -4.7113798 
C    -4.6474421   -1.2916585   -3.8596011 
H    -4.6498651   -0.6050973   -4.7083521 
C    -1.1947205   -2.5386921   -0.1148616 
C     0.1207879   -2.6134994    0.4329120 
C     0.3856665   -3.4810935    1.5088193 
H     1.3971246   -3.5349841    1.9237578 
C    -0.6350451   -4.2663117    2.0651306 
H    -0.4118860   -4.9348032    2.9028405 
C    -1.9326494   -4.1873536    1.5450688 
H    -2.7373155   -4.7944861    1.9722417 
C    -2.1991186   -3.3378808    0.4612765 
H    -3.2019637   -3.2824031    0.0323215 
C    -2.3922106    0.5707448   -0.1096443 
H    -2.6040924    1.5713222   -0.5306299 
C    -3.6568426    0.0721414    0.6116045 
H    -4.4700339    0.0020798   -0.1251531 
H    -3.5047620   -0.9291352    1.0450070 
H    -3.9745275    0.7594271    1.4096419 
C     5.3556462   -2.4007668    2.1559350 
C     4.5856853   -1.2568351    2.4157125 
C     3.4116711   -1.0232048    1.6870805 
C     2.9771427   -1.9347162    0.7002313 
C     3.7646955   -3.0752247    0.4411752 
C     4.9439642   -3.3042293    1.1646593 
H     6.2781231   -2.5822787    2.7169811 
H     4.9052484   -0.5370903    3.1763551 
H     2.8361184   -0.1094076    1.8696549 
H     3.4777765   -3.7795583   -0.3433281 
H     5.5469666   -4.1915037    0.9455465 
C     2.0712541   -3.4128021   -4.4701309 
C     1.8772508   -4.2460854   -3.3560043 
C     1.6952221   -3.6877639   -2.0840576 
C     1.7180529   -2.2860226   -1.9165652 
C     1.8839272   -1.4597833   -3.0397865 
C     2.0683865   -2.0200255   -4.3104707 
H     2.2106046   -3.8515789   -5.4636169 
H     1.8564929   -5.3339176   -3.4795165 
H     1.4968055   -4.3426833   -1.2285714 
H     1.8306574   -0.3754365   -2.9179646 
H     2.2011262   -1.3649526   -5.1773466 
H    -1.3547172   -1.1665207    2.0947921 
C    -2.1670266   -0.8735728    4.7255165 
C    -2.1198443    0.1803938    3.6029631 
C    -1.0604891   -0.1969279    2.5386558 
C     0.3186308   -0.3909452    3.2060873 
C     0.2727864   -1.3865900    4.3779628 
C    -0.8005799   -1.0160925    5.4104479 
H    -2.4713164   -1.8493184    4.2974469 
H    -2.9442010   -0.5896106    5.4576894 
H    -1.8637062    1.1568294    4.0514042 
H    -3.1177252    0.2860727    3.1541325 
H     1.0317480   -0.7528137    2.4507260 
H     0.7028153    0.5820352    3.5648672 
H     0.0501580   -2.3927203    3.9783817 
H     1.2721518   -1.4433460    4.8465692 
H    -0.5352226   -0.0576786    5.8993911 
H    -0.8435425   -1.7779301    6.2092448 
H    -0.9518571    3.2783980    0.7059733 
C    -0.3203615    4.6143704    3.0469643 
C    -0.2329884    3.1107100    2.7262737 
C    -1.2279657    2.7092447    1.6115960 
C    -2.6735512    3.1360764    1.9569493 
C    -2.7217311    4.6493768    2.2484846 
C    -1.7596878    5.0352338    3.3828228 
H     0.0296554    5.1937760    2.1730309 
H     0.3616290    4.8531941    3.8828940 
H    -0.4562277    2.5411819    3.6467898 
H     0.7971496    2.8375647    2.4291542 
H    -3.3519714    2.9078994    1.1168523 
H    -3.0475227    2.5870909    2.8378986 
H    -2.4482854    5.2025857    1.3287379 
H    -3.7569934    4.9405435    2.5015935 
H    -2.0797070    4.5377148    4.3199655 
H    -1.8045430    6.1226393    3.5721439 
