122
Energy =
C     3.2767154    1.3465443   -1.0032962 
C     2.2715885    2.1884347   -1.5161589 
C     1.4510843    2.9772510   -0.6459389 
H     2.0432574    2.1759310   -2.5899937 
Pd    1.1012942    0.8374768   -0.2194537 
P    -0.8697873    0.9616302    1.1005069 
P     1.3973854   -1.5236230   -0.3221140 
H     3.5569558    1.4874408    0.0518095 
H     1.9224275    3.3347373    0.2804063 
C     6.1407115   -0.9765018   -3.2062937 
C     6.1554235   -0.9591161   -1.8041530 
C     5.2116651   -0.2021213   -1.1018881 
C     4.2275071    0.5487886   -1.7866655 
C     4.2398614    0.5366749   -3.2028371 
C     5.1827797   -0.2193696   -3.9022623 
H     6.8795357   -1.5668069   -3.7580333 
H     6.9039950   -1.5367778   -1.2527457 
H     5.2276341   -0.1934468   -0.0068814 
H     3.5150159    1.1334317   -3.7652005 
H     5.1772020   -0.2156486   -4.9969906 
C    -1.6989880    5.4678937   -2.2159133 
C    -1.5600054    4.1420495   -2.6607821 
C    -0.5349271    3.3348356   -2.1559392 
C     0.3697922    3.8322622   -1.1916640 
C     0.2286805    5.1700708   -0.7640689 
C    -0.7960748    5.9802078   -1.2724710 
H    -2.5042174    6.0984531   -2.6063098 
H    -2.2593642    3.7368933   -3.4004140 
H    -0.4459115    2.2916623   -2.4801324 
H     0.9314600    5.5800085   -0.0302157 
H    -0.8902633    7.0154958   -0.9288116 
Fe   -3.3022926   -1.5218311   -2.2868339 
C    -2.0393711   -0.3403010   -1.1669929 
C    -1.5876704   -1.7215086   -1.1792912 
C    -1.3944141   -2.1037529   -2.5600098 
H    -1.0610220   -3.0859061   -2.8963796 
C    -1.6970982   -0.9799658   -3.3933744 
H    -1.6647912   -0.9645105   -4.4841360 
C    -2.1009643    0.0976177   -2.5404356 
H    -2.4467337    1.0809964   -2.8644919 
C    -5.2775886   -0.9681044   -2.2109941 
H    -5.6767855   -0.0001976   -1.9026584 
C    -5.0488117   -2.1041465   -1.3642653 
H    -5.2584653   -2.1566004   -0.2948118 
C    -4.5225958   -3.1650865   -2.1766504 
H    -4.2334535   -4.1602581   -1.8339740 
C    -4.4305057   -2.6853085   -3.5247340 
H    -4.0447202   -3.2445783   -4.3791872 
C    -4.8963132   -1.3276384   -3.5459030 
H    -4.9306572   -0.6751875   -4.4205138 
C    -1.2159561   -2.5893408   -0.0274190 
C     0.1386776   -2.6693440    0.4085771 
C     0.4935575   -3.5723081    1.4309169 
H     1.5348126   -3.6366378    1.7611700 
C    -0.4759879   -4.3820196    2.0394265 
H    -0.1821070   -5.0814190    2.8286334 
C    -1.8149542   -4.2825968    1.6405468 
H    -2.5815093   -4.9001147    2.1196651 
C    -2.1722833   -3.3973109    0.6135543 
H    -3.2083491   -3.3292445    0.2735553 
C    -2.3607180    0.5655826    0.0030926 
H    -2.4973194    1.5642070   -0.4494676 
C    -3.6608865    0.2075102    0.7469944 
H    -4.5146915    0.3961405    0.0783536 
H    -3.6754742   -0.8580158    1.0163478 
H    -3.7988025    0.8048404    1.6631466 
C     5.2875868   -2.5481539    2.0405142 
C     4.3833737   -1.5791646    2.5044854 
C     3.2279343   -1.2929804    1.7662787 
C     2.9522682   -1.9755627    0.5628675 
C     3.8707292   -2.9365358    0.0980253 
C     5.0290974   -3.2204130    0.8371385 
H     6.1943202   -2.7721022    2.6118614 
H     4.5790435   -1.0421367    3.4384042 
H     2.5331686   -0.5248705    2.1185687 
H     3.7029923   -3.4494821   -0.8523607 
H     5.7382913   -3.9650374    0.4609539 
C     1.8151814   -3.1625185   -4.6531418 
C     1.7567573   -4.0579843   -3.5720356 
C     1.6385136   -3.5725052   -2.2633447 
C     1.5920250   -2.1814301   -2.0270586 
C     1.6317596   -1.2936011   -3.1146451 
C     1.7465931   -1.7814236   -4.4229745 
H     1.9021036   -3.5448848   -5.6755280 
H     1.7924817   -5.1378109   -3.7500444 
H     1.5518384   -4.2755840   -1.4276089 
H     1.5328570   -0.2201218   -2.9296118 
H     1.7738128   -1.0810170   -5.2641247 
H    -0.2868577   -1.1344570    2.0999987 
C    -1.5889214   -1.6352391    4.4762903 
C    -1.9441398   -0.6215076    3.3675092 
C    -0.6863187   -0.2195829    2.5659746 
C     0.3934948    0.3196960    3.5353315 
C     0.7718610   -0.7414247    4.5824359 
C    -0.4644261   -1.1461433    5.3997852 
H    -1.2761794   -2.5794922    3.9928749 
H    -2.4985712   -1.8644544    5.0602175 
H    -2.4101951    0.2763655    3.8188592 
H    -2.6908978   -1.0820881    2.7068434 
H     1.2846518    0.6588558    2.9739024 
H     0.0022078    1.2065720    4.0672600 
H     1.1911280   -1.6301432    4.0710184 
H     1.5652139   -0.3464383    5.2427606 
H    -0.8150400   -0.2710489    5.9818002 
H    -0.2047613   -1.9299082    6.1337106 
H    -1.8981640    2.1827964    2.8926141 
C    -2.8819195    4.6230454    2.1175762 
C    -2.4307674    3.4466246    1.2281025 
C    -1.4044386    2.5629479    1.9745936 
C    -0.2018602    3.4347232    2.4058030 
C    -0.6550373    4.5845599    3.3225108 
C    -1.7001385    5.4649226    2.6207538 
H    -3.4405114    4.2204378    2.9859495 
H    -3.5912867    5.2530039    1.5510708 
H    -1.9791093    3.8346761    0.2973909 
H    -3.3241704    2.8690283    0.9402195 
H     0.5798862    2.8361253    2.8985209 
H     0.2514069    3.8619880    1.4987303 
H    -1.0834998    4.1645071    4.2542023 
H     0.2216296    5.1871657    3.6220595 
H    -1.2251381    5.9723483    1.7592938 
H    -2.0580466    6.2584363    3.3008664 
