116
Energy =
C    -3.5674911   -0.0526286   -0.3589454 
C    -2.9504182    0.4756528   -1.5319587 
C    -2.1761866   -0.3304435   -2.3843984 
H    -3.0554673    1.5449413   -1.7538729 
Pd   -1.2800825   -0.1208860   -0.1784263 
P     0.9243719    0.4626089   -0.6971572 
P    -0.8303768   -1.0985165    1.9793511 
H    -3.8300090   -1.1181456   -0.3873722 
H    -2.2031493   -1.4146385   -2.2004968 
C    -6.1086150    2.3827592    2.1255363 
C    -6.3605564    1.0105699    1.9778990 
C    -5.5307559    0.2247564    1.1682292 
C    -4.4263543    0.7918399    0.4923065 
C    -4.1907568    2.1793893    0.6460581 
C    -5.0221074    2.9643193    1.4505049 
H    -6.7566593    2.9974804    2.7584630 
H    -7.2123018    0.5508570    2.4899524 
H    -5.7473158   -0.8424153    1.0459948 
H    -3.3268543    2.6422491    0.1543642 
H    -4.8187181    4.0348193    1.5599555 
C    -0.7016825    0.6015299   -6.3123043 
C    -0.5623990   -0.6876761   -5.7760199 
C    -1.0461052   -0.9667457   -4.4936149 
C    -1.6711369    0.0348793   -3.7122834 
C    -1.8395358    1.3188044   -4.2861345 
C    -1.3527068    1.5986801   -5.5656035 
H    -0.3247225    0.8246319   -7.3155632 
H    -0.0817529   -1.4779280   -6.3616860 
H    -0.9438156   -1.9761310   -4.0811126 
H    -2.3647305    2.1040831   -3.7351831 
H    -1.4914811    2.5979210   -5.9908489 
Fe    3.8967633   -0.6928772    1.1871236 
C     2.1726594    0.2767890    0.6169855 
C     1.9908633   -0.4414676    1.8690293 
C     2.9584805    0.0812748    2.8047207 
C     3.7398794    1.0882372    2.1540573 
C     3.2813568    1.1969800    0.8052642 
C     5.1572660   -2.0058741    2.0997836 
C     4.3164852   -2.7011243    1.1670120 
C     4.5465929   -2.1398594   -0.1309573 
C     5.5168321   -1.0912478   -0.0070677 
C     5.8981823   -1.0110333    1.3741920 
C     1.0195603   -1.5727827    2.1558699 
H     3.1118663   -0.2522660    3.8308911 
H     4.5706246    1.6391629    2.5984336 
H     3.6818464    1.8763818    0.0516902 
H     5.2131286   -2.1854408    3.1752077 
H     3.6323446   -3.5199364    1.3983355 
H     4.0751741   -2.4643356   -1.0565009 
H     5.9018908   -0.4698969   -0.8174714 
H     6.6107607   -0.3046904    1.8039106 
H     1.1151486   -2.2990276    1.3267738 
C     1.4310926   -2.2656928    3.4718025 
H     2.4823216   -2.5867587    3.3790331 
H     1.3711744   -1.5767262    4.3277323 
H     0.8259022   -3.1463165    3.7052505 
C    -1.7450075   -2.8059322    1.8834979 
C    -1.3108235   -0.1127330    3.5517783 
C    -1.2826348   -3.9153510    2.8532580 
H    -1.9837666   -4.7642333    2.7507648 
H    -0.2803610   -4.2972701    2.6021901 
H    -1.2984012   -3.6028842    3.9084347 
C    -1.5149990   -0.9781187    4.8132839 
H    -1.7274729   -0.3046044    5.6640860 
H    -2.3756032   -1.6586421    4.7154214 
H    -0.6271567   -1.5724598    5.0758548 
C    -3.2513707   -2.5625580    2.1153783 
H    -3.8151178   -3.4560537    1.7901898 
H    -3.4813905   -2.3953294    3.1795415 
H    -3.6210282   -1.6989337    1.5475852 
C    -1.5213375   -3.3239362    0.4420020 
H    -2.0200370   -4.3038305    0.3259968 
H    -1.9434824   -2.6319388   -0.3073085 
H    -0.4502660   -3.4634455    0.2105810 
C    -0.1860902    0.9183380    3.7982331 
H    -0.5378339    1.6480198    4.5501386 
H     0.7338965    0.4571675    4.1857113 
H     0.0670395    1.4740303    2.8798632 
C    -2.6002693    0.6716562    3.2456290 
H    -3.4599512    0.0236910    3.0212097 
H    -2.8643612    1.2857508    4.1259087 
H    -2.4558153    1.3487323    2.3894827 
H     1.9706596    2.6397363   -1.0413034 
C     0.3439239    4.5219485    0.2904193 
C     0.3967848    2.9894136    0.4125237 
C     0.9188905    2.3336764   -0.8860144 
C     0.0895520    2.7861528   -2.0985139 
C     0.0414047    4.3195677   -2.2143261 
C    -0.4899557    4.9620381   -0.9233917 
H     1.3753138    4.9129537    0.1879916 
H    -0.0653659    4.9530823    1.2216813 
H    -0.6211700    2.5967050    0.6183952 
H     1.0315084    2.6966417    1.2669014 
H     0.4809218    2.3468642   -3.0317051 
H    -0.9385208    2.4012449   -1.9704077 
H     1.0597702    4.7013762   -2.4240125 
H    -0.5851403    4.6039611   -3.0793403 
H    -1.5451228    4.6554929   -0.7714894 
H    -0.4914718    6.0628637   -1.0121774 
H     0.9032208    0.1092067   -3.0562871 
C     2.1485921   -2.4160106   -3.4904148 
C     1.5652658   -1.7708770   -2.2178721 
C     1.6137370   -0.2288885   -2.2783587 
C     3.0214379    0.2956157   -2.6225869 
C     3.5322929   -0.3329064   -3.9322483 
C     3.5401246   -1.8675497   -3.8524924 
H     1.4651469   -2.2142169   -4.3353730 
H     2.1841857   -3.5137689   -3.3670740 
H     2.1281326   -2.1030502   -1.3257787 
H     0.5201429   -2.0993199   -2.0632008 
H     3.0076565    1.3967903   -2.7148831 
H     3.7042801    0.0464267   -1.7892970 
H     2.8776872   -0.0112002   -4.7660875 
H     4.5449209    0.0471007   -4.1579221 
H     4.2835445   -2.1887138   -3.0978465 
H     3.8729670   -2.2995777   -4.8129546 
