122
Energy =
C    -0.0115067   -2.8556151    1.6590923 
C     0.4005275   -2.0571160    2.7621922 
C    -0.4749902   -1.1318039    3.3755487 
H     1.4527409   -2.0785678    3.0693104 
Pd   -0.0928324   -0.6569696    1.1326107 
P    -0.0248626    1.6898773    1.3917998 
P     0.1453355   -0.9600671   -1.1719217 
H    -1.0843231   -3.0825267    1.5782561 
H    -1.5518177   -1.2711037    3.1975261 
C     2.5390821   -5.6741646   -0.3625632 
C     3.1088304   -4.6019959    0.3441299 
C     2.2915712   -3.6650890    0.9840936 
C     0.8830953   -3.8013268    0.9644680 
C     0.3260540   -4.8973108    0.2659042 
C     1.1437090   -5.8160630   -0.4030424 
H     3.1823137   -6.3872229   -0.8869380 
H     4.1952990   -4.4810314    0.3676346 
H     2.7529194   -2.8095924    1.4895812 
H    -0.7607848   -5.0273521    0.2574301 
H     0.6910090   -6.6440891   -0.9569736 
C     0.4018258    1.2512335    6.8438436 
C    -0.8878940    1.2372023    6.2928751 
C    -1.1556245    0.4643676    5.1577952 
C    -0.1382183   -0.2995257    4.5396026 
C     1.1593290   -0.2680383    5.1040455 
C     1.4218669    0.4925307    6.2455908 
H     0.6125055    1.8464806    7.7382893 
H    -1.6915199    1.8196986    6.7548555 
H    -2.1691074    0.4435653    4.7469511 
H     1.9726766   -0.8437504    4.6537857 
H     2.4305292    0.4984364    6.6699518 
Fe   -3.1654907    2.1526965   -2.6265722 
C    -1.7652664    0.9775519   -1.7622967 
C    -1.7429243    2.2981979   -1.1552914 
C    -3.0645645    2.5651704   -0.6437140 
H    -3.3667481    3.4839449   -0.1393243 
C    -3.8826164    1.4124280   -0.8759162 
H    -4.9376620    1.3139134   -0.6145498 
C    -3.0911678    0.4336951   -1.5627909 
H    -3.4456537   -0.5359895   -1.9188002 
C    -3.1882209    1.8157489   -4.6444756 
H    -2.6933026    0.9963033   -5.1697955 
C    -2.6222982    3.1043855   -4.3642540 
H    -1.6277694    3.4435304   -4.6596657 
C    -3.6004841    3.8747145   -3.6474382 
H    -3.4773902    4.8955254   -3.2807378 
C    -4.7739804    3.0642016   -3.4941805 
H    -5.6902901    3.3534595   -2.9763972 
C    -4.5194516    1.7921926   -4.1086794 
H    -5.2088257    0.9463508   -4.1392888 
C    -0.5388159    3.1558555   -0.9935422 
C     0.4003592    2.8956403    0.0455311 
C     1.5990990    3.6373756    0.1005356 
H     2.3359230    3.4329213    0.8813900 
C     1.8614714    4.6468845   -0.8359564 
H     2.8075260    5.1945996   -0.7879043 
C     0.9056890    4.9569999   -1.8106813 
H     1.0872610    5.7654029   -2.5263157 
C    -0.2807721    4.2147652   -1.8814982 
H    -1.0231499    4.4235970   -2.6544050 
C     1.9458598   -1.0365140   -1.5248127 
C     2.6481398    0.1626874   -1.2897670 
H     2.1171997    1.0550041   -0.9419077 
C     4.0312151    0.2338676   -1.5023176 
C     4.7399237   -0.8918400   -1.9388212 
H     5.8154742   -0.8301179   -2.1237589 
C     4.0491827   -2.0981866   -2.1322721 
C     2.6665583   -2.1820821   -1.9161751 
H     2.1746331   -3.1473938   -2.0433153 
C    -0.6800546   -2.4978888   -1.7542220 
C    -1.8848277   -2.8070506   -1.1032348 
H    -2.2243865   -2.1850174   -0.2683304 
C    -2.6552907   -3.9056855   -1.5063472 
C    -2.2246054   -4.7284499   -2.5524211 
H    -2.8124847   -5.5998011   -2.8519768 
C    -1.0287108   -4.4108454   -3.2157354 
C    -0.2750768   -3.2880027   -2.8469523 
H     0.6226034   -3.0512238   -3.4222260 
C    -0.6393833    0.2523657   -2.4482513 
H    -1.1035096   -0.4568909   -3.1545264 
C     0.3588355    1.1010932   -3.2483854 
H    -0.2140229    1.7004967   -3.9741835 
H     0.9410056    1.7994713   -2.6310771 
H     1.0629699    0.4577279   -3.8008023 
C    -3.9142078   -4.2012748   -0.7247803 
F    -4.6178950   -5.2245748   -1.2378174 
F    -3.6029961   -4.5133927    0.5659378 
F    -4.7230005   -3.1125048   -0.6756810 
C    -0.5083012   -5.3381302   -4.2956090 
F     0.3192066   -4.6950057   -5.1499076 
F     0.1953893   -6.3596165   -3.7435010 
F    -1.5135970   -5.8818088   -5.0122964 
C     4.7283182    1.5549057   -1.2559855 
F     6.0364135    1.5120293   -1.5699011 
F     4.1557834    2.5499560   -1.9778878 
F     4.6307837    1.9193432    0.0531840 
C     4.8339750   -3.3191989   -2.5683186 
F     4.0245384   -4.3401459   -2.9312941 
F     5.6376695   -3.0322763   -3.6144868 
F     5.6334901   -3.7698713   -1.5660642 
C     3.5911733    2.3985456    4.2335832 
C     3.6624826    1.4757218    3.1791550 
C     2.5405275    1.2499336    2.3720090 
C     1.3427083    1.9639671    2.5952723 
C     1.2707113    2.8714244    3.6679621 
C     2.3923226    3.0825347    4.4825169 
H     4.4662594    2.5766498    4.8670659 
H     4.5933545    0.9366669    2.9765718 
H     2.6009352    0.5295036    1.5476082 
H     0.3399428    3.4026895    3.8833443 
H     2.3239579    3.7842358    5.3199894 
C    -3.9171494    3.5779827    3.0906854 
C    -2.8152367    4.3986839    2.7984778 
C    -1.6340355    3.8384773    2.2940308 
C    -1.5422704    2.4441571    2.0971286 
C    -2.6576425    1.6317529    2.3703610 
C    -3.8401340    2.1951439    2.8683798 
H    -4.8408121    4.0203594    3.4780323 
H    -2.8793241    5.4805125    2.9547867 
H    -0.7910475    4.4873273    2.0331062 
H    -2.6060447    0.5587686    2.1572342 
H    -4.7057182    1.5556716    3.0702175 
