110
Energy =
C     1.1419331    2.8519424    0.7740630 
C     0.4330715    2.9877563   -0.4349838 
C    -0.9852650    2.8358509   -0.4530569 
H     0.9754256    3.1445494   -1.3753611 
Pd   -0.0049349    0.8879602    0.1232356 
P    -1.9605848   -0.4570942   -0.1037015 
P     1.6456466   -0.7413730    0.6145851 
H     0.5461603    2.8843113    1.6977224 
H    -1.5099427    3.0762083    0.4812504 
C     5.3274002    3.4673807    1.5147782 
C     4.4090527    3.3985180    2.5737709 
C     3.0497780    3.2027254    2.3077025 
C     2.5770965    3.0711124    0.9791609 
C     3.5128405    3.1718725   -0.0785178 
C     4.8717424    3.3619480    0.1893282 
H     6.3929079    3.6138645    1.7186480 
H     4.7536198    3.4943446    3.6083450 
H     2.3351380    3.1400360    3.1356801 
H     3.1797874    3.1004309   -1.1179356 
H     5.5826753    3.4315961   -0.6402839 
C    -3.4025227    3.2390632   -3.9889849 
C    -2.0783799    2.7799618   -4.0973532 
C    -1.2817486    2.6471737   -2.9558990 
C    -1.7901744    2.9813364   -1.6780732 
C    -3.1189691    3.4555165   -1.5860023 
C    -3.9184019    3.5793570   -2.7293309 
H    -4.0266516    3.3332760   -4.8833342 
H    -1.6716223    2.5118409   -5.0779406 
H    -0.2677960    2.2426527   -3.0480424 
H    -3.5236925    3.7318278   -0.6056501 
H    -4.9460520    3.9455998   -2.6375909 
Fe   -0.5004056   -3.2883979    1.0672567 
C     1.0568202   -2.1443903    1.6159433 
C     1.4581120   -3.5349187    1.5369986 
H     2.2322067   -3.9503012    0.8895267 
C     0.6452959   -4.2866104    2.4466929 
H     0.6858758   -5.3676349    2.5920516 
C    -0.2548024   -3.3817936    3.0994926 
H    -1.0200168   -3.6536581    3.8286567 
C    -0.0060829   -2.0649591    2.5953745 
C    -1.7825005   -2.2805076   -0.1133580 
C    -2.4859924   -3.2541611    0.7047413 
H    -3.2587028   -3.0473729    1.4455419 
C    -1.9680778   -4.5563507    0.4059784 
H    -2.2779747   -5.4876836    0.8832765 
C    -0.9489890   -4.4150170   -0.5895527 
H    -0.3449221   -5.2198063   -1.0119154 
C    -0.8343522   -3.0256924   -0.9137713 
H    -0.5375712   -1.1554551    2.8779846 
H    -0.1483632   -2.6013101   -1.6435390 
C    -3.2140913   -0.0713581   -1.4928341 
C    -4.5550590    0.1737104   -0.7480250 
C    -4.5412448   -0.5821629    0.5852635 
C    -3.2158386   -0.2331224    1.3016756 
H    -2.8734557    0.8768391   -1.9360602 
H    -4.6659452    1.2571400   -0.5628630 
H    -5.4144786   -0.1248310   -1.3687507 
H    -5.4160876   -0.3405410    1.2116583 
H    -4.5851269   -1.6677223    0.3895032 
H    -2.9699877   -0.9795597    2.0788754 
C     3.3318000   -0.2302506    1.3390728 
C     4.3242099   -0.5023201    0.1795169 
C     3.8681931   -1.7295621   -0.6243754 
C     2.3532052   -1.6058364   -0.9136987 
H     3.2797971    0.8565887    1.5023155 
H     4.3453200    0.3864772   -0.4719644 
H     5.3511908   -0.6280153    0.5588066 
H     4.4448999   -1.8376034   -1.5606604 
H     4.0534134   -2.6451212   -0.0333355 
H     1.8822280   -2.6022981   -0.9019887 
C     1.9475166   -0.9435571   -2.2595671 
H     0.8548535   -0.7697263   -2.1909222 
C     3.6405512   -0.8755559    2.7201758 
H     3.4237301   -1.9594158    2.6732897 
C    -3.2130437   -1.1240476   -2.6343155 
H    -3.2978053   -2.1353791   -2.1924119 
C    -3.1738358    1.1764529    1.9581293 
H    -3.1174601    1.9296858    1.1490142 
C     2.7442842   -0.2415416    3.8017578 
H     2.8177823   -0.7952281    4.7531997 
H     3.0569974    0.8013349    3.9886019 
H     1.6817963   -0.2225713    3.5049754 
C     5.1196492   -0.7085552    3.1191040 
H     5.2721785   -1.0619748    4.1537914 
H     5.7990799   -1.2875352    2.4713975 
H     5.4220730    0.3541549    3.0749517 
C     2.5858105    0.4281098   -2.5168225 
H     2.1563939    0.8863935   -3.4250000 
H     2.3975113    1.1113481   -1.6703422 
H     3.6773997    0.3546694   -2.6659182 
C     2.1937639   -1.9042513   -3.4356323 
H     1.8319150   -1.4634792   -4.3808341 
H     3.2694857   -2.1234834   -3.5591369 
H     1.6698722   -2.8657854   -3.2871408 
C    -1.8915282   -1.0301151   -3.4194906 
H    -1.7571465   -1.8965174   -4.0891588 
H    -1.8782859   -0.1116803   -4.0317573 
H    -1.0167496   -0.9770823   -2.7485793 
C    -4.3933541   -0.9285153   -3.6058106 
H    -4.2875454   -1.6108141   -4.4671991 
H    -5.3677539   -1.1426340   -3.1362079 
H    -4.4150549    0.1072448   -3.9922548 
C    -1.9309414    1.3314041    2.8492599 
H    -1.8365311    2.3644280    3.2274654 
H    -1.9890669    0.6563640    3.7229092 
H    -1.0008780    1.0874548    2.2923287 
C    -4.4427255    1.4777687    2.7788106 
H    -4.3294814    2.4382246    3.3107333 
H    -5.3423994    1.5556095    2.1462733 
H    -4.6210934    0.6928212    3.5365931 
