124
Energy =
C     2.4557081   -0.8548575   -2.1355352 
C     2.5472912    0.5748074   -2.1755737 
C     2.9800569    1.3054528   -1.0525117 
H     2.1664253    1.1124809   -3.0536307 
Pd    1.0652628    0.0022683   -0.6322771 
P    -0.3438901    1.4618052    0.5725112 
P     0.0494338   -2.0122359    0.0087255 
H     3.1952051   -1.3764065   -1.5140936 
H     3.4579542    0.7348101   -0.2406794 
C     0.9303196   -3.2087957   -5.4074485 
C     0.4387667   -1.9099570   -5.1918549 
C     0.9229927   -1.1390030   -4.1296068 
C     1.9200752   -1.6458697   -3.2628908 
C     2.4082241   -2.9516743   -3.4949903 
C     1.9170888   -3.7259307   -4.5543369 
H     0.5451277   -3.8126324   -6.2351835 
H    -0.3338884   -1.5009412   -5.8511172 
H     0.5064446   -0.1405192   -3.9541129 
H     3.1889010   -3.3560820   -2.8407110 
H     2.3097981   -4.7348611   -4.7176097 
C     3.5550224    5.5523619   -0.7176160 
C     3.7383940    4.7119202    0.3914554 
C     3.5655066    3.3298060    0.2576177 
C     3.1870528    2.7580284   -0.9796383 
C     3.0425740    3.6154924   -2.0963123 
C     3.2207777    4.9957056   -1.9640212 
H     3.6920004    6.6339172   -0.6180367 
H     4.0232524    5.1339009    1.3608189 
H     3.7171643    2.6753740    1.1228980 
H     2.7941869    3.2018797   -3.0787823 
H     3.1047723    5.6432902   -2.8391486 
Fe   -2.7752382    0.2593708    3.1319747 
C    -1.7664073    0.6159663    1.3575912 
C    -1.8503351   -0.8119781    1.6472608 
C    -3.2444478   -1.1556347    1.7502651 
C    -4.0282814    0.0265624    1.5496379 
C    -3.1285542    1.1184231    1.3326398 
C    -2.8344541    1.6874064    4.6092311 
C    -4.0670811    0.9593149    4.5490210 
C    -3.7744293   -0.4285041    4.7709799 
C    -2.3605942   -0.5580041    4.9729606 
C    -1.7796414    0.7486591    4.8715477 
C    -0.7236056   -1.8146410    1.7184420 
H    -3.6307239   -2.1517281    1.9767588 
H    -5.1164510    0.0932124    1.6034370 
H    -3.4207115    2.1551552    1.1581864 
H    -2.7249616    2.7663090    4.4908262 
H    -5.0527717    1.3816526    4.3451415 
H    -4.4988351   -1.2450932    4.7636606 
H    -1.8276643   -1.4902468    5.1680261 
H    -0.7234274    0.9917948    4.9912604 
H    -1.8972766    3.2246265   -0.0740870 
C    -2.6370695    2.8081712   -2.7415473 
C    -1.9667918    1.8471689   -1.7441827 
C    -1.1842329    2.6144983   -0.6611116 
C    -0.1538779    3.5485316   -1.3236110 
C    -0.8183876    4.5136985   -2.3196938 
C    -1.6145118    3.7531756   -3.3908331 
H    -3.4035668    3.4056262   -2.2094540 
H    -3.1729070    2.2240618   -3.5115750 
H    -1.2589801    1.1872120   -2.2836672 
H    -2.7251641    1.1936320   -1.2836108 
H     0.4198885    4.1216376   -0.5755839 
H     0.5759076    2.9178529   -1.8630719 
H    -1.4956528    5.1961575   -1.7696045 
H    -0.0414644    5.1475857   -2.7842657 
H    -0.9131801    3.1592057   -4.0112866 
H    -2.1191293    4.4598414   -4.0735155 
H     1.1532691    3.2176313    1.1358387 
C     1.9405815    2.9151660    3.8200682 
C     1.2681556    1.9250025    2.8527109 
C     0.4462667    2.6538735    1.7743339 
C    -0.5673286    3.6352148    2.3950821 
C     0.1171337    4.6100881    3.3710724 
C     0.9137696    3.8669715    4.4540006 
H     2.6924872    3.5119826    3.2676079 
H     2.4897543    2.3575530    4.6000702 
H     0.5954150    1.2577505    3.4189309 
H     2.0262058    1.2796556    2.3698235 
H    -1.0830247    4.2094311    1.6056331 
H    -1.3388815    3.0438926    2.9205064 
H     0.8022516    5.2677134    2.8006532 
H    -0.6429217    5.2682043    3.8298074 
H     0.2159537    3.2868178    5.0897180 
H     1.4197574    4.5870109    5.1213809 
H    -2.0001475   -3.2595644   -0.2830497 
C    -2.1392201   -4.2452049   -2.9002865 
C    -0.9234926   -3.7216148   -2.1122364 
C    -1.3612486   -2.7253112   -1.0161859 
C    -2.1802711   -1.5780216   -1.6422134 
C    -3.3950598   -2.1024699   -2.4237916 
C    -2.9660434   -3.1020654   -3.5082197 
H    -2.7811841   -4.8444738   -2.2243733 
H    -1.7858997   -4.9303186   -3.6918633 
H    -0.2319323   -3.2151639   -2.8060722 
H    -0.3780908   -4.5773064   -1.6814786 
H    -2.5057648   -0.8713877   -0.8630941 
H    -1.5133802   -1.0209655   -2.3267824 
H    -4.0966214   -2.5929473   -1.7201029 
H    -3.9400622   -1.2505735   -2.8700507 
H    -2.3517855   -2.5753391   -4.2643144 
H    -3.8485139   -3.5047590   -4.0367883 
H     1.4585176   -3.6572036   -0.9061771 
C     1.6890050   -5.8628284    0.6823701 
C     0.7094059   -4.6843137    0.8480132 
C     1.2760457   -3.4200780    0.1613230 
C     2.6455049   -3.0560791    0.7781682 
C     3.6325891   -4.2231070    0.5902801 
C     3.0877673   -5.5169164    1.2201007 
H     1.7582120   -6.1192780   -0.3932597 
H     1.2883071   -6.7555388    1.1951041 
H     0.5647172   -4.4787172    1.9263495 
H    -0.2807583   -4.9539823    0.4401318 
H     3.0409543   -2.1285703    0.3293860 
H     2.5331199   -2.8543276    1.8572290 
H     3.8057077   -4.3827673   -0.4927852 
H     4.6107574   -3.9617284    1.0322275 
H     3.0312716   -5.3858294    2.3188897 
H     3.7844426   -6.3545795    1.0390322 
H    -1.1784930   -2.7923591    1.9576840 
C     0.3634038   -1.4959832    2.7604881 
H    -0.1077631   -1.0690752    3.6575964 
H     0.9134107   -2.4046120    3.0514910 
H     1.0907594   -0.7628134    2.3755681 
