124
Energy =
C     3.0569113   -0.7482516   -1.6173222 
C     2.6835872    0.5413058   -2.0628108 
C     2.7198932    1.6754033   -1.2140168 
H     2.2831691    0.6524366   -3.0784311 
Pd    1.2446495    0.0637027   -0.4473698 
P    -0.2924767    1.4370223    0.7234285 
P     0.0462035   -1.9158535   -0.0280456 
H     3.7074327   -0.7937928   -0.7308113 
H     3.3858165    1.6224459   -0.3402304 
C     3.4468581   -4.1535458   -4.2318456 
C     2.4998753   -3.1573704   -4.5239600 
C     2.3549717   -2.0520614   -3.6801811 
C     3.1429973   -1.9195855   -2.5129733 
C     4.1018573   -2.9215849   -2.2429550 
C     4.2550667   -4.0240665   -3.0936128 
H     3.5607997   -5.0171901   -4.8948194 
H     1.8740493   -3.2412832   -5.4186900 
H     1.6177497   -1.2843259   -3.9304197 
H     4.7451089   -2.8258154   -1.3613329 
H     5.0110435   -4.7828761   -2.8664781 
C     1.9761113    5.6723663   -2.6514408 
C     1.3699740    4.5769741   -3.2876310 
C     1.5892026    3.2773878   -2.8184199 
C     2.4287863    3.0372058   -1.7047101 
C     3.0434381    4.1505416   -1.0865914 
C     2.8169852    5.4518941   -1.5500608 
H     1.8000025    6.6889786   -3.0171259 
H     0.7175169    4.7384017   -4.1520507 
H     1.0870647    2.4390359   -3.3134334 
H     3.7182071    3.9898131   -0.2389801 
H     3.3070980    6.2966895   -1.0550873 
Fe   -2.8099948    0.2441708    3.1039177 
C    -1.7777531    0.5573761    1.3457074 
C    -1.8904840   -0.8693348    1.6395514 
C    -3.2914137   -1.1855824    1.7364086 
C    -4.0538764    0.0027596    1.5149413 
C    -3.1343629    1.0754630    1.2946022 
C    -1.8743182    0.2422203    4.9456893 
C    -2.3298573    1.5617919    4.6068206 
C    -3.7473632    1.5037127    4.4106799 
C    -4.1675796    0.1466836    4.6192870 
C    -3.0082902   -0.6340395    4.9454899 
C    -0.8205770   -1.9362896    1.6443461 
H    -3.6945209   -2.1735517    1.9692070 
H    -5.1408903    0.0909564    1.5587735 
H    -3.4171684    2.1118168    1.1203928 
H    -0.8495208   -0.0363488    5.1936508 
H    -1.7096654    2.4549008    4.5243296 
H    -4.3918629    2.3378842    4.1272607 
H    -5.1870267   -0.2305745    4.5186277 
H    -2.9947666   -1.7057881    5.1518669 
H     0.0089784    3.0864071   -0.9317900 
C    -2.0242663    4.9341421   -1.0419159 
C    -1.6595586    3.9553941    0.0910714 
C    -0.9346778    2.7181305   -0.4863566 
C    -1.7330881    2.0345095   -1.6203960 
C    -2.1613079    3.0353010   -2.7090850 
C    -2.8891964    4.2503818   -2.1130796 
H    -1.0926984    5.3131198   -1.5057081 
H    -2.5495079    5.8083160   -0.6172450 
H    -2.5834769    3.6652925    0.6204181 
H    -1.0216390    4.4649624    0.8329414 
H    -1.1129679    1.2325590   -2.0628735 
H    -2.6317629    1.5437388   -1.2025666 
H    -1.2653206    3.3870446   -3.2524021 
H    -2.8004947    2.5198630   -3.4488159 
H    -3.8452151    3.9230031   -1.6577419 
H    -3.1499152    4.9674477   -2.9118231 
H    -0.4934433    2.9563930    2.5633959 
C     1.9603819    4.2628251    2.9255798 
C     1.4596232    3.4409247    1.7238948 
C     0.3901089    2.4241673    2.1583789 
C     0.9586504    1.5019672    3.2498196 
C     1.4641502    2.3073387    4.4594311 
C     2.5077732    3.3552015    4.0391513 
H     1.1245653    4.8730799    3.3206935 
H     2.7361694    4.9734388    2.5875748 
H     2.3067074    2.8784254    1.2919909 
H     1.0905014    4.1126264    0.9317703 
H     0.1864727    0.7792524    3.5516899 
H     1.7997289    0.9236002    2.8165027 
H     0.6076545    2.8172141    4.9422578 
H     1.8850897    1.6194895    5.2149022 
H     3.4147373    2.8357789    3.6707367 
H     2.8208901    3.9585065    4.9096390 
H    -1.9049007   -0.9652004   -0.9184834 
C    -3.6315197   -2.7107460   -2.0658758 
C    -2.4207219   -3.0397449   -1.1717593 
C    -1.3901503   -1.8933678   -1.2392304 
C    -0.9238565   -1.6774774   -2.6926274 
C    -2.1212860   -1.3853558   -3.6161253 
C    -3.1961333   -2.4807109   -3.5225086 
H    -4.1316031   -1.8023359   -1.6752758 
H    -4.3695776   -3.5307595   -2.0084860 
H    -1.9556600   -3.9745690   -1.5352232 
H    -2.7511698   -3.2198340   -0.1347011 
H    -0.2024277   -0.8394225   -2.7268263 
H    -0.3864374   -2.5771274   -3.0474878 
H    -2.5656088   -0.4126543   -3.3268145 
H    -1.7698774   -1.2754806   -4.6581629 
H    -2.7894483   -3.4266220   -3.9313813 
H    -4.0670679   -2.2157017   -4.1480651 
H     1.1580691   -3.6625420   -1.2228913 
C     0.9221989   -6.0932519    0.1415030 
C     0.1356509   -4.7836579    0.3429116 
C     0.9535456   -3.5595543   -0.1373895 
C     2.3146122   -3.5214059    0.6000974 
C     3.0923960   -4.8364911    0.4097783 
C     2.2731652   -6.0514246    0.8697103 
H     1.0902491   -6.2519875   -0.9418129 
H     0.3119172   -6.9430109    0.4966483 
H    -0.0858088   -4.6710685    1.4220237 
H    -0.8320544   -4.8467182   -0.1765219 
H     2.9092841   -2.6614248    0.2536368 
H     2.1450820   -3.3663309    1.6799293 
H     3.3416873   -4.9560123   -0.6601372 
H     4.0503457   -4.7792203    0.9579604 
H     2.0988831   -5.9911426    1.9625363 
H     2.8369449   -6.9840890    0.6903555 
H    -1.3570597   -2.9003194    1.6836741 
C     0.1774722   -1.9051670    2.8144248 
H    -0.3699310   -1.6802594    3.7424999 
H     0.6738124   -2.8810888    2.9349507 
H     0.9546807   -1.1387942    2.6719645 
