94
Energy =
C     0.4371736    1.3438099    2.6872833 
C    -0.7468663    1.9636396    2.1996874 
C    -1.9514827    1.2202032    2.0881009 
H    -0.6966633    2.9737883    1.7754852 
Pd   -0.3038435    0.2872669    0.8422225 
P    -1.6016574   -0.6090912   -0.8816643 
P     1.7931523   -0.6599517    0.4049938 
H     0.3091130    0.4899632    3.3682442 
H    -2.0425570    0.3310980    2.7317415 
C     4.3565435    3.1096991    2.8605315 
C     4.0422824    1.9850722    3.6361149 
C     2.7606842    1.4250233    3.5757618 
C     1.7679620    1.9755905    2.7332418 
C     2.1019568    3.1069390    1.9519272 
C     3.3787157    3.6697334    2.0208860 
H     5.3578348    3.5500355    2.9069167 
H     4.7958374    1.5437115    4.2969436 
H     2.5214312    0.5482866    4.1861844 
H     1.3624069    3.5383979    1.2696972 
H     3.6191772    4.5454967    1.4095668 
C    -5.7446542    2.7303642    0.7586106 
C    -4.5624195    3.3691729    0.3466861 
C    -3.3177543    2.8745695    0.7425218 
C    -3.2287651    1.7344814    1.5755421 
C    -4.4243559    1.0836884    1.9556843 
C    -5.6711727    1.5802927    1.5563539 
H    -6.7177830    3.1239135    0.4478506 
H    -4.6155731    4.2565908   -0.2923280 
H    -2.4059923    3.3714896    0.3953332 
H    -4.3701388    0.1891473    2.5866148 
H    -6.5870119    1.0709005    1.8732638 
Fe    1.0001217   -1.9684192   -2.5632427 
C    -0.6968657   -0.9144727   -2.4253614 
C    -0.8631722   -1.9943457   -3.3734014 
H    -1.5907273   -2.8019758   -3.2924908 
C     0.1134040   -1.8180433   -4.4072397 
H     0.2707113   -2.4880982   -5.2545291 
C     0.8749152   -0.6372189   -4.1162300 
H     1.7108966   -0.2538179   -4.7040827 
C     0.3799306   -0.0705170   -2.8972177 
C     1.9950402   -1.9884599   -0.8195858 
C     2.9257495   -2.0275043   -1.9258634 
H     3.6921096   -1.2797891   -2.1361665 
C     2.6346628   -3.1995587   -2.6980453 
H     3.1442456   -3.4998852   -3.6153740 
C     1.5368992   -3.8873056   -2.0814664 
H     1.0673293   -4.8020238   -2.4475134 
C     1.1333653   -3.1470189   -0.9228041 
H     0.7628907    0.8157172   -2.3878825 
H     0.3133118   -3.3992565   -0.2479759 
C    -3.0520161    0.2921692   -1.4782999 
C    -4.4112022    0.0685022   -1.4386615 
C    -5.0116231    1.1255447   -2.1921643 
C    -3.9892839    1.9324972   -2.6401042 
H    -4.9102555   -0.7619209   -0.9416677 
H    -6.0746561    1.2767751   -2.3790207 
O    -2.7886572    1.4336016   -2.2042817 
C    -3.9403510    3.1840228   -3.4447154 
H    -3.5038136    4.0138518   -2.8586940 
H    -3.3202412    3.0523259   -4.3494304 
H    -4.9569560    3.4707564   -3.7534892 
C    -2.3036805   -2.1801297   -0.3513210 
C    -2.2336489   -2.8289636    0.8650463 
C    -2.9571745   -4.0537842    0.7201035 
C    -3.4294644   -4.0838874   -0.5750038 
H    -1.7160183   -2.4604945    1.7516739 
H    -3.1156838   -4.8219977    1.4768421 
O    -3.0394295   -2.9460814   -1.2316762 
C    -4.2375528   -5.0624279   -1.3548543 
H    -5.1618166   -4.5946868   -1.7382500 
H    -3.6700502   -5.4412049   -2.2240915 
H    -4.5117650   -5.9154052   -0.7161870 
C     2.9624120    0.6126412   -0.1197051 
C     4.3258487    0.7913511   -0.0274254 
C     4.6252760    1.9996511   -0.7314480 
C     3.4324903    2.4910555   -1.2135745 
H     5.0167330    0.1312580    0.4937275 
H     5.6048778    2.4608156   -0.8578182 
C     2.4901484   -1.3523939    1.9249032 
C     1.8664077   -1.9571690    2.9965491 
C     2.9042555   -2.3984417    3.8775278 
C     4.0998232   -2.0411561    3.2919163 
H     0.7897440   -2.0659193    3.1329759 
H     2.7873354   -2.9134657    4.8309664 
O     2.4129190    1.6533287   -0.8466947 
O     3.8530172   -1.4173010    2.0962228 
C     3.0527513    3.7062140   -1.9863387 
H     2.5135678    3.4398155   -2.9130991 
H     2.3907795    4.3619613   -1.3909939 
H     3.9549000    4.2752902   -2.2569094 
C     5.5284200   -2.1825978    3.6887298 
H     6.0927141   -2.7640827    2.9378139 
H     6.0115571   -1.1928552    3.7792696 
H     5.5989641   -2.6983919    4.6581250 
