124
Energy =
C     3.4016248   -0.6096782   -0.7975107 
C     3.0144339    0.4305715   -1.6635478 
C     2.6164644    1.7052537   -1.1449616 
H     2.9227506    0.2332123   -2.7390197 
Pd    1.2273345    0.1266056   -0.3990455 
P    -0.3035341    1.5236899    0.7398732 
P    -0.0424997   -1.8260290   -0.1493958 
H     3.5912316   -0.3310185    0.2513342 
H     3.1296756    2.0450938   -0.2359412 
C     5.3768570   -4.2862336   -1.8096526 
C     4.8953104   -3.4556865   -2.8365487 
C     4.2042499   -2.2800571   -2.5294864 
C     3.9877144   -1.9006900   -1.1827564 
C     4.4618034   -2.7584340   -0.1608453 
C     5.1487687   -3.9382775   -0.4695317 
H     5.9254319   -5.2009950   -2.0554398 
H     5.0678439   -3.7247563   -3.8835009 
H     3.8569443   -1.6369998   -3.3443100 
H     4.3075729   -2.4760106    0.8871741 
H     5.5179824   -4.5810538    0.3360820 
C     1.1291535    4.8359007   -3.7121433 
C     0.8942337    3.4890985   -4.0353761 
C     1.3617583    2.4703893   -3.1985521 
C     2.0980013    2.7715222   -2.0272525 
C     2.3335922    4.1314613   -1.7209912 
C     1.8488102    5.1515343   -2.5498961 
H     0.7552655    5.6322931   -4.3634776 
H     0.3337905    3.2327223   -4.9404043 
H     1.1383160    1.4264474   -3.4459294 
H     2.9174278    4.3892668   -0.8315011 
H     2.0459098    6.1978344   -2.2940016 
Fe   -2.5335298    0.2089958    3.3404013 
C    -1.7070714    0.6088488    1.4936255 
C    -1.7911108   -0.8317809    1.7414333 
C    -3.1762608   -1.1517988    1.9706930 
C    -3.9525172    0.0453393    1.8914398 
C    -3.0582282    1.1271325    1.6196517 
C    -1.3664718    0.1365761    5.0377816 
C    -1.8977603    1.4575118    4.8426195 
C    -3.3267073    1.3630132    4.8296368 
C    -3.6801486   -0.0166695    5.0096133 
C    -2.4680552   -0.7750123    5.1352453 
C    -0.7377491   -1.9043778    1.5932390 
H    -3.5560462   -2.1494742    2.2017570 
H    -5.0275404    0.1304591    2.0599886 
H    -3.3520829    2.1709080    1.5253519 
H    -0.3113459   -0.1232649    5.1263322 
H    -1.3182656    2.3745554    4.7327642 
H    -4.0243413    2.1895982    4.6826532 
H    -4.6936725   -0.4221037    5.0191527 
H    -2.4006133   -1.8558320    5.2725622 
H    -0.1453983    3.2009174   -0.9041369 
C    -2.1909570    5.0308206   -0.8380107 
C    -1.7613485    4.0279383    0.2503276 
C    -1.0520403    2.8159029   -0.3961409 
C    -1.9274327    2.1444766   -1.4744825 
C    -2.4245951    3.1578284   -2.5205456 
C    -3.1159630    4.3651349   -1.8693082 
H    -1.2880113    5.4205582   -1.3482726 
H    -2.6911834    5.8950422   -0.3653676 
H    -2.6603541    3.7053127    0.8030304 
H    -1.1053015    4.5266573    0.9830355 
H    -1.3389222    1.3519825   -1.9678585 
H    -2.7941523    1.6518134   -0.9939330 
H    -1.5585686    3.5135691   -3.1076963 
H    -3.1056407    2.6504942   -3.2280007 
H    -4.0464968    4.0353878   -1.3653656 
H    -3.4173772    5.0942149   -2.6424441 
H    -0.3938050    2.9648000    2.6453465 
C     1.9593002    4.4428678    2.8503957 
C     1.4226394    3.6363538    1.6528833 
C     0.4785846    2.5160841    2.1295271 
C     1.2174765    1.5963508    3.1171481 
C     1.7852258    2.3819967    4.3124857 
C     2.6908409    3.5350639    3.8520382 
H     1.1140552    4.9500138    3.3559293 
H     2.6327390    5.2396514    2.4864339 
H     2.2752192    3.1734922    1.1269273 
H     0.9313834    4.3078289    0.9300787 
H     0.5306089    0.8079943    3.4595801 
H     2.0467306    1.0968387    2.5752162 
H     0.9476014    2.7929783    4.9090324 
H     2.3361922    1.6955722    4.9805584 
H     3.5956672    3.1167416    3.3677923 
H     3.0402186    4.1208681    4.7206382 
H    -2.0601821   -0.8090985   -0.7830674 
C    -3.8494925   -2.5208305   -1.9255476 
C    -2.5535787   -2.8694495   -1.1690538 
C    -1.5618487   -1.6882035   -1.2388607 
C    -1.2497580   -1.3092916   -2.7059987 
C    -2.5489906   -0.9735882   -3.4615813 
C    -3.5587404   -2.1312998   -3.3843929 
H    -4.3491035   -1.6779320   -1.4081852 
H    -4.5460508   -3.3774930   -1.8850309 
H    -2.0961313   -3.7662451   -1.6270812 
H    -2.7853894   -3.1243681   -0.1202244 
H    -0.5473549   -0.4541717   -2.7309170 
H    -0.7434343   -2.1461517   -3.2166679 
H    -3.0031893   -0.0657196   -3.0204226 
H    -2.3156847   -0.7325204   -4.5144126 
H    -3.1484952   -3.0100654   -3.9202650 
H    -4.4952706   -1.8563070   -3.9014783 
H     1.8027840   -3.3314216    0.0201638 
C     1.7896070   -5.0763688   -2.1320508 
C     0.9788328   -3.7878818   -1.9145655 
C     0.7934786   -3.4889132   -0.4094406 
C     0.1504592   -4.6947297    0.3160991 
C     0.9720787   -5.9770468    0.0794714 
C     1.1431277   -6.2722805   -1.4181535 
H     2.8116391   -4.9277258   -1.7425096 
H     1.8878993   -5.2706454   -3.2152543 
H    -0.0144369   -3.9126931   -2.3836522 
H     1.4708529   -2.9335821   -2.4138686 
H     0.0783108   -4.5077654    1.4014902 
H    -0.8801848   -4.8483571   -0.0524300 
H     1.9705393   -5.8552599    0.5442299 
H     0.4837101   -6.8246842    0.5929412 
H     0.1516935   -6.4826664   -1.8664015 
H     1.7542198   -7.1811197   -1.5619574 
H    -1.2657904   -2.8690104    1.6841466 
C     0.4223507   -1.8946001    2.6017274 
H     0.0233293   -1.9347352    3.6277839 
H     1.0850406   -2.7648841    2.4519318 
H     1.0315175   -0.9840428    2.4972578 
