98
Energy =
C     1.1624438   -2.3228639   -1.2987140 
C     1.6574254   -1.2715763   -2.1138064 
C     2.6719835   -0.4127664   -1.6388369 
H     1.2222881   -1.1000575   -3.1054247 
Pd    0.6566138   -0.2727185   -0.3933903 
P     0.6410470    1.9472309    0.5145911 
P    -1.1732933   -1.2688617    0.7212039 
H     1.8123524   -2.6335995   -0.4699938 
H     3.2246728   -0.7573569   -0.7531580 
C    -1.4639919   -5.4715005   -2.5859400 
C    -0.7241736   -5.5941103   -1.4011267 
C     0.1073539   -4.5488479   -0.9825108 
C     0.2174348   -3.3598482   -1.7409237 
C    -0.5488564   -3.2449952   -2.9248553 
C    -1.3746624   -4.2909696   -3.3433095 
H    -2.1108661   -6.2895407   -2.9191932 
H    -0.7875004   -6.5096096   -0.8039720 
H     0.6904584   -4.6544223   -0.0619315 
H    -0.5039034   -2.3297885   -3.5229101 
H    -1.9581747   -4.1848039   -4.2630998 
C     4.8896050    2.4462946   -3.9585572 
C     3.6202136    2.0350892   -4.3995115 
C     2.8813315    1.1073291   -3.6594276 
C     3.3924823    0.5752168   -2.4520458 
C     4.6788238    0.9888961   -2.0288904 
C     5.4196392    1.9132064   -2.7736470 
H     5.4646050    3.1732491   -4.5410188 
H     3.2060120    2.4407641   -5.3282898 
H     1.8939189    0.8016349   -4.0196913 
H     5.0961444    0.5756233   -1.1038014 
H     6.4133025    2.2180581   -2.4299052 
Fe   -2.5794349    1.5619540    2.0006374 
C    -1.0062254    2.4781687    1.1188066 
C    -1.3968015    3.1890647    2.3204145 
H    -0.7742903    3.3762548    3.1947641 
C    -2.7639409    3.5958565    2.1899882 
H    -3.3460457    4.1201934    2.9499996 
C    -3.2440400    3.1525036    0.9155596 
H    -4.2575808    3.2771667    0.5304330 
C    -2.1753850    2.4598528    0.2563783 
C    -2.3440150   -0.4220849    1.8412669 
C    -3.7111991   -0.0519809    1.5425872 
H    -4.2247111   -0.2229544    0.5955653 
C    -4.2508792    0.6040135    2.6964543 
H    -5.2519114    1.0323198    2.7730695 
C    -3.2395786    0.6379654    3.7121594 
H    -3.3390888    1.0873643    4.7017521 
C    -2.0644248    0.0027623    3.1963659 
C    -2.3487176   -1.8612794   -0.5674002 
C    -2.5917495   -0.9634321   -1.6294165 
H    -2.0066895   -0.0381701   -1.6965138 
C    -3.5590253   -1.2550979   -2.5999508 
H    -3.7438438   -0.5476002   -3.4150382 
C    -4.2776563   -2.4579424   -2.5303020 
H    -5.0307206   -2.6927848   -3.2895540 
C    -4.0142737   -3.3683806   -1.4965459 
H    -4.5511965   -4.3214533   -1.4544627 
C    -3.0583239   -3.0736898   -0.5140165 
H    -2.8545164   -3.8038407    0.2727200 
C    -0.6529443   -2.6485895    1.8241847 
C     0.7168858   -2.8557029    2.0800914 
H     1.4589351   -2.2143338    1.5914284 
C     1.1341048   -3.8582036    2.9672568 
H     2.2019644   -4.0068410    3.1580098 
C     0.1828377   -4.6615343    3.6123681 
H     0.5057633   -5.4485674    4.3015413 
C    -1.1860221   -4.4369712    3.3940790 
H    -1.9320049   -5.0428853    3.9186925 
C    -1.6049399   -3.4259653    2.5197437 
H    -2.6744005   -3.2269497    2.3968343 
H    -2.2412328    1.9785121   -0.7196939 
H    -1.1333454   -0.1599133    3.7371676 
C     1.8434972    1.9933613    2.0038021 
C     0.9912726    3.3985826   -0.7167540 
C     1.2350900    1.0936229    3.1015311 
H     1.9665843    0.9842037    3.9230514 
H     0.3086073    1.5132313    3.5198433 
H     1.0130070    0.0844118    2.7103445 
C     3.1788627    1.3496546    1.5625239 
H     3.8796986    1.3629842    2.4171056 
H     3.0250438    0.2969617    1.2669507 
H     3.6567537    1.8780215    0.7243838 
C     2.1095101    3.4047534    2.5689995 
H     2.7364654    3.3093765    3.4746585 
H     2.6566465    4.0408804    1.8563969 
H     1.1859788    3.9296444    2.8571964 
C     0.3984000    4.7367687   -0.2244969 
H     0.6537770    5.5185359   -0.9637438 
H    -0.6989271    4.7022186   -0.1374236 
H     0.8145610    5.0491922    0.7462065 
C     2.5018962    3.5693413   -0.9629490 
H     2.6448410    4.2905181   -1.7875849 
H     3.0276029    3.9704993   -0.0821887 
H     2.9813048    2.6298671   -1.2657019 
C     0.3105038    2.9931215   -2.0440857 
H     0.5579947    3.7393073   -2.8210581 
H     0.6640087    2.0077955   -2.3904288 
H    -0.7870466    2.9619853   -1.9519160 
