134
Energy =
C    -0.3600128   -0.1403830    3.3011636 
C    -0.5481641    1.2417948    3.1189467 
C    -1.6775639    1.7314815    2.3902490 
H     0.2119719    1.9481807    3.4739977 
Pd   -0.4046255    0.5419203    1.0216235 
P    -1.0913512    1.3425821   -1.0494990 
P     1.1003946   -1.1329088    0.2497440 
H    -1.2248020   -0.7834774    3.0887701 
H    -2.5614557    1.0762026    2.3643175 
C     2.6115341   -2.0523818    5.7546807 
C     1.5659836   -2.7936086    5.1856366 
C     0.6210145   -2.1573068    4.3736442 
C     0.6991101   -0.7696289    4.1009019 
C     1.7682133   -0.0407618    4.6735727 
C     2.7056356   -0.6753448    5.4939237 
H     3.3559296   -2.5443428    6.3873599 
H     1.4862881   -3.8679118    5.3785055 
H    -0.2095173   -2.7368847    3.9586091 
H     1.8748221    1.0299234    4.4781359 
H     3.5231320   -0.0914538    5.9292990 
C    -2.6142452    5.9094398    1.9211225 
C    -3.6301032    4.9418787    1.9241963 
C    -3.3087426    3.5879122    2.0815896 
C    -1.9672640    3.1701148    2.2318627 
C    -0.9570022    4.1596166    2.2488213 
C    -1.2772563    5.5118555    2.0932291 
H    -2.8614392    6.9685134    1.7962025 
H    -4.6766783    5.2425691    1.8091521 
H    -4.1056640    2.8368047    2.0958493 
H     0.0919585    3.8686149    2.3663864 
H    -0.4795796    6.2619873    2.1022001 
Fe   -2.9772413   -3.5659464    0.1912575 
C    -1.3245867   -2.4229531    0.5463131 
C    -2.1466849   -1.7841772   -0.4811222 
C    -3.4625561   -1.5986865    0.0849223 
H    -4.3203007   -1.2008196   -0.4558409 
C    -3.4605572   -2.0526264    1.4438011 
H    -4.3152818   -2.0589631    2.1228239 
C    -2.1527933   -2.5667907    1.7236189 
H    -1.8384899   -3.0378918    2.6570157 
C    -2.6152064   -5.5683603    0.4207716 
H    -1.7727059   -6.0205960    0.9469871 
C    -2.6680064   -5.2363528   -0.9746103 
H    -1.8718417   -5.4054659   -1.7018475 
C    -3.9592737   -4.6689765   -1.2455107 
H    -4.3205344   -4.3094753   -2.2106894 
C    -4.7008048   -4.6485347   -0.0203221 
H    -5.7103928   -4.2550941    0.1115613 
C    -3.8717534   -5.2062743    1.0096019 
H    -4.1405323   -5.3112204    2.0625283 
C    -1.7934087   -1.3545109   -1.8761882 
C    -1.3553439   -0.0424004   -2.2467966 
C    -1.1314203    0.2438736   -3.6126990 
H    -0.7861638    1.2396104   -3.9044913 
C    -1.3357199   -0.7101139   -4.6151337 
H    -1.1452466   -0.4542908   -5.6610828 
C    -1.7660921   -1.9917124   -4.2590486 
H    -1.9147029   -2.7607897   -5.0223662 
C    -1.9816298   -2.2966999   -2.9107938 
H    -2.3091111   -3.2947425   -2.6209345 
C     2.0743138   -1.3397550   -1.3285196 
C     3.4227867   -0.9282149   -1.3746560 
H     3.9046767   -0.4701947   -0.5095172 
C     4.1888443   -1.0996927   -2.5335256 
C     3.6488731   -1.7328309   -3.6590227 
H     4.2657880   -1.9195585   -4.5415677 
C     2.3116134   -2.1482066   -3.6193819 
C     1.5181640   -1.9223879   -2.4839483 
H     0.4724497   -2.2295051   -2.5080003 
C     2.5230583   -1.0490718    1.4134834 
C     3.0156379    0.2437908    1.6614731 
H     2.4874995    1.1142978    1.2540309 
C     4.1778214    0.4288032    2.4213094 
C     4.8368610   -0.6705480    2.9811291 
H     5.7258067   -0.5267820    3.5999258 
C     4.3166261   -1.9578343    2.7725558 
C     3.1772288   -2.1555276    1.9796832 
H     2.8105135   -3.1730072    1.8199515 
C     0.1621770   -2.7521450    0.5437998 
H     0.4277514   -2.9489995    1.5986598 
C     0.5869852   -3.9739834   -0.2883764 
H     0.1709992   -4.8795678    0.1804144 
H     0.1992618   -3.9269834   -1.3162984 
H     1.6846299   -4.0755837   -0.3357324 
C     4.6431087    1.8457553    2.6635019 
F     5.7550505    1.9050046    3.4167874 
F     4.8889896    2.4878955    1.4944401 
F     3.6719270    2.5639455    3.3014445 
C     5.0160715   -3.1530205    3.3877243 
F     4.1563250   -4.1840899    3.5774185 
F     6.0154804   -3.6006922    2.5961855 
F     5.5581601   -2.8423160    4.5886612 
C     5.6095196   -0.5744067   -2.5607329 
F     6.3854492   -1.2696632   -3.4162088 
F     5.6373165    0.7265189   -2.9562565 
F     6.1809559   -0.6266655   -1.3346156 
C     1.7304479   -2.8690316   -4.8182393 
F     0.7515895   -3.7349165   -4.4486428 
F     1.1853855   -2.0069575   -5.7135044 
F     2.6752284   -3.5750529   -5.4734836 
H    -0.1626902    2.8459620   -2.7401462 
C     2.6281816    2.7457470   -2.5619234 
C     1.5686561    1.7695917   -2.0235999 
C     0.2241156    2.4706733   -1.7741837 
C     0.4167645    3.6709163   -0.8199384 
C     1.4855246    4.6460636   -1.3443187 
C     2.8219650    3.9342774   -1.6072242 
H     2.3118636    3.1153206   -3.5572982 
H     3.5787351    2.2055306   -2.7117846 
H     1.9235442    1.3557606   -1.0614653 
H     1.4437741    0.9168551   -2.7118811 
H    -0.5335761    4.2055662   -0.6513980 
H     0.7307603    3.2734895    0.1655060 
H     1.1235681    5.1092254   -2.2832416 
H     1.6155809    5.4683366   -0.6176704 
H     3.2394165    3.5663219   -0.6485192 
H     3.5608629    4.6436095   -2.0198300 
H    -2.5064567    3.1518714   -0.3760933 
C    -5.1860989    2.3996249   -0.8371667 
C    -3.8979491    1.5567465   -0.8066331 
C    -2.6522060    2.3886802   -1.1638534 
C    -2.8415165    3.1059236   -2.5188287 
C    -4.1269522    3.9568234   -2.5154722 
C    -5.3636800    3.1074969   -2.1882283 
H    -5.1440895    3.1608554   -0.0361836 
H    -6.0536989    1.7514978   -0.6165288 
H    -3.9919006    0.7339295   -1.5411123 
H    -3.7631272    1.0893019    0.1844453 
H    -1.9782694    3.7554016   -2.7438793 
H    -2.9083660    2.3536387   -3.3281920 
H    -4.0232791    4.7632175   -1.7630628 
H    -4.2401737    4.4496537   -3.4976050 
H    -5.5116098    2.3523346   -2.9855245 
H    -6.2711838    3.7369200   -2.1754327 
