98
Energy =
C    -1.0480118   -1.8593848   -2.2466092 
C    -0.7364440   -0.6381320   -2.8920857 
C     0.6101018   -0.1990840   -2.9875009 
H    -1.5485781    0.0185175   -3.2279412 
Pd   -0.0330804   -0.3891259   -0.8169821 
P     1.6242781    1.0656899    0.0502270 
P    -1.1306309   -1.0609352    1.1579602 
H    -0.2384157   -2.6012435   -2.1706880 
H     1.3826486   -0.9799577   -2.9469492 
C    -4.9752234   -3.5729487   -1.8629207 
C    -3.8351081   -4.3897038   -1.8891366 
C    -2.5631373   -3.8167059   -2.0139680 
C    -2.4060784   -2.4162503   -2.1262200 
C    -3.5661945   -1.6073691   -2.1163734 
C    -4.8350327   -2.1792187   -1.9806049 
H    -5.9695483   -4.0182480   -1.7569307 
H    -3.9361708   -5.4768853   -1.8092348 
H    -1.6750971   -4.4585432   -2.0204212 
H    -3.4734738   -0.5195606   -2.1992224 
H    -5.7213498   -1.5364313   -1.9663845 
C     1.9087333    3.4381537   -4.8820146 
C     0.5974670    3.3426613   -4.3841737 
C     0.1620917    2.1689800   -3.7617138 
C     1.0265693    1.0561057   -3.6351926 
C     2.3407511    1.1644864   -4.1458241 
C     2.7788899    2.3446423   -4.7601599 
H     2.2481114    4.3614698   -5.3620778 
H    -0.0844537    4.1945072   -4.4730236 
H    -0.8507907    2.1243832   -3.3475507 
H     3.0212208    0.3093738   -4.0639606 
H     3.7997860    2.4083755   -5.1504559 
Fe    1.0074998    0.4007437    3.2961573 
C    -0.0884092   -1.1421095    2.6461305 
C    -0.4301866   -0.8255114    4.0199843 
H    -1.4086953   -0.5168740    4.3911225 
C     0.7555985   -0.9562292    4.8151675 
H     0.8291001   -0.7548157    5.8853435 
C     1.8313380   -1.3584644    3.9574954 
H     2.8676960   -1.5170736    4.2605502 
C     1.3187424   -1.4814384    2.6252131 
C     1.4883988    1.6176946    1.7829992 
C     2.5149447    1.6597075    2.8080751 
H     3.5656358    1.3920995    2.6887321 
C     1.9075948    2.0918899    4.0322982 
H     2.4157433    2.1921435    4.9929576 
C     0.5177113    2.3341861    3.7836315 
H    -0.2207428    2.6531125    4.5211900 
C     0.2564330    2.0550166    2.4033158 
H     1.8869556   -1.7628434    1.7366341 
H    -0.7057266    2.1484303    1.9000667 
C     2.0833828    2.6713564   -0.8090217 
C     3.5658193    2.8405044   -0.4158341 
C     4.2504122    1.4773943   -0.6182305 
C     3.3677788    0.3421837   -0.0228565 
H     2.0337099    2.4494676   -1.8891407 
H     4.0489552    3.6188760   -1.0320367 
H     3.6398199    3.1684311    0.6385337 
H     4.3626695    1.2967163   -1.7039742 
H     5.2632310    1.4600771   -0.1806889 
H     3.6377743    0.1577728    1.0319229 
C    -2.0968759   -2.6652624    1.2572146 
C    -3.1745741   -2.3492201    2.3138158 
C    -3.7505878   -0.9663733    1.9629518 
C    -2.5909554    0.0249179    1.6610917 
H    -2.5999966   -2.7589395    0.2790566 
H    -3.9658693   -3.1192222    2.3111279 
H    -2.7265781   -2.3499285    3.3256049 
H    -4.3744560   -1.0643574    1.0545110 
H    -4.4012854   -0.5775071    2.7647380 
H    -2.2661943    0.5248407    2.5917009 
C    -2.9427560    1.1045444    0.6184755 
H    -2.0315855    1.6736717    0.3508814 
H    -3.2669627    0.6042162   -0.3124049 
C    -4.0329487    2.0702243    1.1018443 
H    -4.2465344    2.8382191    0.3387696 
H    -4.9768418    1.5403614    1.3181422 
H    -3.7196281    2.5890922    2.0262483 
C    -1.2220984   -3.9063512    1.4932189 
H    -0.4743228   -3.9704494    0.6783395 
H    -0.6492386   -3.7807034    2.4312806 
C    -2.0284469   -5.2120932    1.5508314 
H    -2.7139969   -5.2245100    2.4157699 
H    -2.6350057   -5.3463012    0.6380299 
H    -1.3563035   -6.0819288    1.6464969 
C     1.1427772    3.8459231   -0.4953148 
H     1.1246815    4.0239352    0.5960722 
H     0.1131880    3.5596127   -0.7859283 
C     1.5361944    5.1418075   -1.2191783 
H     0.7950336    5.9361448   -1.0255119 
H     2.5178597    5.5126695   -0.8770505 
H     1.5941900    4.9845420   -2.3102547 
C     3.4805517   -0.9968299   -0.7765748 
H     3.2590731   -0.8260392   -1.8461861 
H     2.7038158   -1.6960199   -0.4100640 
C     4.8660387   -1.6419026   -0.6346965 
H     4.9100314   -2.6043977   -1.1724043 
H     5.6583186   -0.9918378   -1.0451509 
H     5.1052752   -1.8346109    0.4269018 
