132
Energy =
C     0.5346000   -0.3959756   -3.6561663 
C     0.4010812    0.9980526   -3.3846776 
C     1.3277622    1.6710197   -2.5514970 
H    -0.5123099    1.5178075   -3.6995230 
Pd    0.3266349   -0.0535746   -1.4597459 
P     0.2494993    0.9093150    0.6627719 
P    -0.3426902   -2.2013122   -0.8204592 
H     1.5550696   -0.8087586   -3.6533244 
H     2.3224058    1.2125929   -2.4413447 
C    -2.3191833   -2.8236472   -5.7917294 
C    -2.7426485   -1.6429289   -5.1575659 
C    -1.8260306   -0.8384730   -4.4725361 
C    -0.4566995   -1.1892198   -4.4116252 
C    -0.0428118   -2.3671699   -5.0762636 
C    -0.9632327   -3.1792523   -5.7522060 
H    -3.0408222   -3.4547440   -6.3201724 
H    -3.7976046   -1.3513916   -5.1935438 
H    -2.1821938    0.0619377   -3.9609181 
H     1.0183477   -2.6416042   -5.0692597 
H    -0.6174144   -4.0875756   -6.2567384 
C     1.3125128    5.8544421   -1.5741020 
C     2.4186261    5.0493575   -1.2652416 
C     2.3935899    3.6812113   -1.5609179 
C     1.2660594    3.0929797   -2.1790857 
C     0.1427221    3.9101357   -2.4448597 
C     0.1684542    5.2756651   -2.1482182 
H     1.3332917    6.9267729   -1.3557433 
H     3.3081833    5.4893951   -0.8024864 
H     3.2625212    3.0562356   -1.3255365 
H    -0.7604199    3.4790526   -2.8874152 
H    -0.7107180    5.8931351   -2.3581769 
Fe   -0.5767623   -0.8468563    3.6988181 
C    -0.7652924   -0.0786076    1.8197117 
C    -0.8679572   -1.5320186    1.8139479 
C    -1.9781334   -1.8861805    2.6626265 
C    -2.5455998   -0.6833410    3.2005717 
C    -1.8007794    0.4292347    2.6927616 
C     0.8368818   -2.0332676    4.5958303 
C     1.3519961   -0.7138125    4.3819531 
C     0.4986702    0.2122894    5.0762585 
C    -0.5435760   -0.5396037    5.7151480 
C    -0.3374337   -1.9279290    5.4145107 
C    -0.6456166    2.5081678    0.6040888 
C    -0.1065669    3.7390189    1.0110431 
C    -0.8573412    4.9257716    0.9191510 
C    -2.1542263    4.8573212    0.3662699 
C    -2.7078194    3.6374192   -0.0906712 
C    -1.9410867    2.4732303    0.0435969 
C     1.8881434    1.1961278    1.4127824 
C     2.0391945    1.9198678    2.6099832 
C     3.3014937    2.1034637    3.1954426 
C     4.4232556    1.5219623    2.5551568 
C     4.3045465    0.7999828    1.3442260 
C     3.0237983    0.6487204    0.7876467 
C    -0.0001560   -2.4765670    1.0189091 
H    -2.3055046   -2.8998328    2.8985065 
H    -3.3760821   -0.6294521    3.9068173 
H    -1.9812902    1.4837859    2.9059580 
H     1.2649393   -2.9560642    4.2010946 
H     2.2294994   -0.4587604    3.7867781 
H     0.6172273    1.2954690    5.1181334 
H    -1.3634492   -0.1265954    6.3056397 
H    -0.9739797   -2.7549962    5.7345846 
H     0.9208440    3.8001979    1.3790838 
H    -2.3576135    1.5203085   -0.2997677 
H     1.1583729    2.3400443    3.1052148 
H     2.9048115    0.0930878   -0.1514015 
H     1.0446185   -2.1209158    1.1028726 
H     0.5374994   -3.0492370   -2.8094921 
H    -2.1125685   -2.6767242   -2.3072303 
C    -4.3886320   -1.2832785   -1.5220432 
C    -2.9404636   -1.1485722   -1.0235365 
C    -2.1511117   -2.4663279   -1.2176755 
C    -2.8778142   -3.6318413   -0.5106747 
C    -4.3205335   -3.7667603   -1.0349020 
C    -5.1097630   -2.4611656   -0.8474417 
H    -4.3767088   -1.4405414   -2.6179153 
H    -4.9322806   -0.3379117   -1.3400107 
H    -2.9384182   -0.8794004    0.0498429 
H    -2.4215794   -0.3318956   -1.5598599 
H    -2.3358653   -4.5819762   -0.6458270 
H    -2.9106576   -3.4238627    0.5741043 
H    -4.2915992   -4.0309156   -2.1104755 
H    -4.8244156   -4.6020586   -0.5161959 
H    -5.2152364   -2.2525289    0.2356373 
H    -6.1322862   -2.5682974   -1.2513510 
C     1.0340870   -5.7253173   -2.8305078 
C     0.1497796   -4.9173794   -1.8592392 
C     0.6448748   -3.4568497   -1.7873523 
C     2.1410981   -3.3635040   -1.4101903 
C     3.0033999   -4.1896711   -2.3812513 
C     2.5215941   -5.6482491   -2.4503133 
H     0.8958926   -5.3266180   -3.8550464 
H     0.6935694   -6.7759501   -2.8523132 
H     0.1722630   -5.3895135   -0.8610827 
H    -0.8963073   -4.9438878   -2.2096039 
H     2.4615588   -2.3030039   -1.4116193 
H     2.2944958   -3.7402140   -0.3803333 
H     2.9460937   -3.7354810   -3.3906078 
H     4.0635447   -4.1435670   -2.0733949 
H     2.6723460   -6.1281449   -1.4628189 
H     3.1315390   -6.2184666   -3.1733591 
C    -0.0601199   -3.9298924    1.5192599 
H     0.1065069   -3.9383977    2.6093125 
H    -1.0323180   -4.4046899    1.3232231 
H     0.7226636   -4.5454915    1.0504721 
C    -0.2799786    6.2471780    1.3668983 
H    -0.6323714    7.0647770    0.7168739 
H    -0.5900819    6.4887269    2.4011742 
H     0.8211725    6.2218565    1.3466115 
C    -4.0751537    3.6214414   -0.7319477 
H    -4.8652507    3.8837595   -0.0052251 
H    -4.1327771    4.3673587   -1.5434545 
H    -4.3091519    2.6251795   -1.1421550 
O    -2.8742919    6.0140652    0.1552761 
C    -3.6398378    6.4991631    1.2669033 
H    -4.1719547    7.3933795    0.9096088 
H    -4.3744749    5.7440750    1.6060073 
H    -2.9903562    6.7754613    2.1186116 
C     3.4658304    2.8913712    4.4736532 
H     2.6638286    3.6400929    4.5816870 
H     3.4201764    2.2284414    5.3584763 
H     4.4413820    3.4037757    4.4921843 
C     5.5372353    0.2353995    0.6785878 
H     6.3333398    0.9971013    0.6260908 
H     5.9491147   -0.6158794    1.2511584 
H     5.3110837   -0.1208738   -0.3396628 
O     5.6826561    1.7208970    3.0729603 
C     6.0927003    0.8082968    4.1019436 
H     7.1153662    1.0993695    4.3836360 
H     5.4345890    0.8738768    4.9886756 
H     6.0944694   -0.2348567    3.7322699 
