112
Energy =
C     0.7607241    0.3686059   -3.0395077 
C     0.1491999    1.6290508   -2.7871532 
C     0.7819809    2.5872644   -1.9599471 
H    -0.8744084    1.8103907   -3.1364101 
Pd    0.3749862    0.6343741   -0.8272119 
P     0.1927903    1.6366328    1.2593571 
P     0.4288870   -1.5351886   -0.0026906 
H     1.8546514    0.3262788   -2.9291351 
H     1.8720837    2.4944542   -1.8521928 
C    -0.7378174   -2.6140471   -5.7609318 
C     0.6080375   -2.6123393   -5.3658976 
C     1.0739326   -1.6454292   -4.4662792 
C     0.2054319   -0.6626687   -3.9347845 
C    -1.1537582   -0.6931076   -4.3255787 
C    -1.6149982   -1.6495782   -5.2357271 
H    -1.1039379   -3.3619755   -6.4713383 
H     1.3005883   -3.3583681   -5.7691792 
H     2.1316652   -1.6352799   -4.1788760 
H    -1.8581807    0.0395357   -3.9179692 
H    -2.6685731   -1.6494438   -5.5335321 
C    -0.6417822    6.5262772   -0.9871340 
C     0.6751170    6.1450889   -0.6925581 
C     1.1163228    4.8527787   -1.0006360 
C     0.2509610    3.9138566   -1.6092351 
C    -1.0804277    4.3068707   -1.8796848 
C    -1.5170662    5.5996177   -1.5781172 
H    -0.9879991    7.5389071   -0.7559727 
H     1.3651660    6.8584504   -0.2300644 
H     2.1485654    4.5640328   -0.7763075 
H    -1.7827015    3.5993094   -2.3307819 
H    -2.5496411    5.8865821   -1.8005267 
Fe   -2.3546973   -1.7112039    2.3189476 
C    -0.4366393   -1.7811678    1.5809929 
C    -0.5548041   -0.8275794    2.6860622 
C    -1.0189538   -1.5760723    3.8335247 
C    -1.2062373   -2.9430832    3.4622723 
C    -0.8659481   -3.0726969    2.0818464 
C    -4.1963387   -2.4767338    2.7390346 
C    -4.0810404   -1.1369765    3.2417983 
C    -3.8071405   -0.2692292    2.1339878 
C    -3.7426885   -1.0730856    0.9467441 
C    -3.9899032   -2.4376823    1.3201993 
C    -0.0804385    0.6090656    2.8395642 
H    -1.2209699   -1.1655698    4.8229779 
H    -1.5824133   -3.7378324    4.1088028 
H    -0.9236030   -3.9927401    1.5009665 
H    -4.3869910   -3.3713270    3.3345350 
H    -4.1690949   -0.8344713    4.2868692 
H    -3.6809554    0.8118558    2.1857635 
H    -3.5483999   -0.7156512   -0.0653526 
H    -4.0183724   -3.2969780    0.6483362 
H     2.1790832   -3.0923177    0.6137877 
C     4.1943334   -1.6480559    1.9481841 
C     2.7233996   -1.2897884    1.6677027 
C     2.2007514   -2.0052240    0.4058655 
C     3.1125660   -1.7375283   -0.8112593 
C     4.5764549   -2.1057356   -0.5132491 
C     5.0901753   -1.3650874    0.7317881 
H     4.2620322   -2.7219085    2.2107275 
H     4.5475112   -1.0839418    2.8300657 
H     2.6398733   -0.1954433    1.5265427 
H     2.0978821   -1.5560853    2.5372129 
H     2.7480561   -2.2859883   -1.6993115 
H     3.0515348   -0.6582402   -1.0596044 
H     4.6512132   -3.1985922   -0.3495265 
H     5.2041819   -1.8742112   -1.3926238 
H     5.0982244   -0.2745435    0.5309521 
H     6.1339081   -1.6544303    0.9477050 
H     0.2728804   -2.4657863   -2.1716275 
C    -2.2260199   -3.7878686   -2.3725481 
C    -1.6848805   -2.7836405   -1.3422051 
C    -0.1485307   -2.8373285   -1.2185661 
C     0.3892643   -4.2723820   -1.0161340 
C    -0.1674022   -5.2186935   -2.0968472 
C    -1.7032747   -5.2079416   -2.1117543 
H    -1.9161067   -3.4706498   -3.3841282 
H    -3.3313164   -3.7673135   -2.3561302 
H    -2.1258902   -2.9878421   -0.3527015 
H    -1.9870016   -1.7547133   -1.6144672 
H     1.4925003   -4.2756975   -1.0566161 
H     0.1102930   -4.6621311   -0.0204757 
H     0.2089390   -4.8975209   -3.0878798 
H     0.2175058   -6.2395114   -1.9228990 
H    -2.0826125   -5.5746841   -1.1365850 
H    -2.0849617   -5.9032302   -2.8805189 
H     0.9589654    0.5496912    3.2178369 
C    -0.9255748    1.3831136    3.8718985 
H    -0.8150650    0.9335932    4.8721705 
H    -0.6202481    2.4370513    3.9524649 
H    -1.9896819    1.3599452    3.5921924 
C     4.1934680    3.8039773    2.3187702 
C     3.0822013    3.9810638    3.1565564 
C     1.8629167    3.3563949    2.8593990 
C     1.7300584    2.5554225    1.7034488 
C     2.8622867    2.3721326    0.8809656 
C     4.0834024    2.9891770    1.1830137 
H     5.1441424    4.2918833    2.5568435 
H     3.1635729    4.6057031    4.0520397 
H     1.0215797    3.4971266    3.5429936 
H     2.7825030    1.7240721    0.0012512 
H     4.9486076    2.8290390    0.5313035 
C    -3.5270619    4.4135345    1.0038373 
C    -3.5350027    3.1147458    0.4735420 
C    -2.3816895    2.3236288    0.5486864 
C    -1.2159839    2.8112223    1.1775940 
C    -1.2037371    4.1276995    1.6747461 
C    -2.3566371    4.9207303    1.5859648 
H    -4.4246279    5.0374900    0.9433058 
H    -4.4363068    2.7182537   -0.0055179 
H    -2.3729441    1.3171840    0.1150768 
H    -0.2947875    4.5518757    2.1076184 
H    -2.3330923    5.9465324    1.9672533 
