116
Energy =
C    -3.5659034    0.0169273   -0.3389791 
C    -2.9461958    0.5599642   -1.5044068 
C    -2.1921495   -0.2426337   -2.3777907 
H    -3.0320597    1.6356939   -1.7022324 
Pd   -1.2821051   -0.0991754   -0.1739201 
P     0.9295847    0.4691015   -0.6851765 
P    -0.8403829   -1.1475055    1.9522331 
H    -3.8524404   -1.0414683   -0.3912089 
H    -2.2406364   -1.3297729   -2.2169376 
C    -6.0336249    2.4483374    2.2220909 
C    -4.9381284    3.0209661    1.5540143 
C    -4.1304231    2.2369220    0.7249755 
C    -4.3994280    0.8593967    0.5390048 
C    -5.5120869    0.3014756    1.2089168 
C    -6.3181942    1.0862659    2.0431256 
H    -6.6632182    3.0621969    2.8741864 
H    -4.7091082    4.0834579    1.6881512 
H    -3.2592869    2.6915000    0.2384839 
H    -5.7540582   -0.7571432    1.0623870 
H    -7.1770264    0.6339899    2.5499388 
C    -0.7159593    0.7350485   -6.2935285 
C    -0.6075910   -0.5685004   -5.7855872 
C    -1.0895245   -0.8617470   -4.5056492 
C    -1.6839952    0.1389931   -3.6997304 
C    -1.8214594    1.4390217   -4.2448609 
C    -1.3347820    1.7332160   -5.5211765 
H    -0.3399951    0.9692065   -7.2946381 
H    -0.1521513   -1.3584883   -6.3913918 
H    -1.0102556   -1.8817554   -4.1144616 
H    -2.3226358    2.2257302   -3.6740369 
H    -1.4490396    2.7447543   -5.9240659 
Fe    3.8906491   -0.7737454    1.1578937 
C     2.1774238    0.2311310    0.6205856 
C     1.9877518   -0.5263283    1.8480223 
C     2.9606044   -0.0451632    2.8004991 
C     3.7516679    0.9758150    2.1839415 
C     3.2945390    1.1342738    0.8394963 
C     4.2601092   -2.7808430    0.9658516 
C     4.5795039   -2.1045489   -0.2570762 
C     5.5654633   -1.1024528    0.0213946 
C     5.8691584   -1.1671833    1.4228378 
C     5.0645439   -2.2052358    2.0060924 
C     1.0034796   -1.6556883    2.0956131 
H     3.1110970   -0.4152025    3.8145918 
H     4.5875418    1.5034275    2.6465488 
H     3.7016715    1.8347841    0.1090789 
H     3.5428410   -3.5963569    1.0790902 
H     4.1540968   -2.3213524   -1.2346496 
H     6.0075901   -0.4152675   -0.7021623 
H     6.5726564   -0.5269415    1.9581425 
H     5.0575763   -2.4899132    3.0600311 
H     1.0816710   -2.3471851    1.2355861 
C     1.4173235   -2.4095198    3.3765431 
H     2.4631100   -2.7396167    3.2584598 
H     1.3745040   -1.7572640    4.2618989 
H     0.8026421   -3.2913557    3.5778449 
C    -1.7865977   -2.8350147    1.8106287 
C    -1.2945480   -0.2056905    3.5589600 
C    -1.5818545   -3.3134557    0.3528285 
H    -2.0997592   -4.2798996    0.2108354 
H    -1.9957735   -2.5913422   -0.3722886 
H    -0.5151392   -3.4659979    0.1099580 
C    -2.5741311    0.6076957    3.2885599 
H    -2.8223904    1.1962115    4.1906612 
H    -2.4259698    1.3104723    2.4539510 
H    -3.4452113   -0.0194908    3.0496912 
C    -1.3397776   -3.9821035    2.7433174 
H    -2.0610162   -4.8117093    2.6239594 
H    -0.3492232   -4.3791803    2.4702769 
H    -1.3373264   -3.7003941    3.8071229 
C    -3.2868808   -2.5710981    2.0594678 
H    -3.8688268   -3.4437061    1.7104364 
H    -3.5076169   -2.4328962    3.1297528 
H    -3.6439316   -1.6837198    1.5209420 
C    -1.5019569   -1.1094236    4.7927151 
H    -1.6961108   -0.4615837    5.6674894 
H    -2.3740068   -1.7729164    4.6803769 
H    -0.6210880   -1.7258356    5.0267470 
C    -0.1526369    0.7991965    3.8326407 
H     0.1057862    1.3807218    2.9319722 
H    -0.4893739    1.5091944    4.6098459 
H     0.7610912    0.3104854    4.2006938 
H     1.9990836    2.6443939   -0.9669151 
C     0.3900118    4.5035706    0.4201605 
C     0.4293074    2.9677096    0.4977515 
C     0.9442557    2.3448496   -0.8197726 
C     0.1191649    2.8406268   -2.0181921 
C     0.0853059    4.3771159   -2.0892435 
C    -0.4401513    4.9863228   -0.7798990 
H     1.4248062    4.8882138    0.3285564 
H    -0.0151689    4.9110664    1.3637814 
H    -0.5917901    2.5781107    0.6938442 
H     1.0622617    2.6446791    1.3424885 
H     0.5059281    2.4247179   -2.9639586 
H    -0.9125104    2.4619380   -1.9008397 
H     1.1071356    4.7555256   -2.2879258 
H    -0.5386169    4.6925889   -2.9453599 
H    -1.4980200    4.6850106   -0.6366586 
H    -0.4318503    6.0892300   -0.8365679 
H     0.8848851    0.1748836   -3.0496524 
C     2.1099666   -2.3337743   -3.5738872 
C     1.5551913   -1.7264817   -2.2701308 
C     1.6043273   -0.1833031   -2.2888682 
C     3.0076647    0.3493760   -2.6395784 
C     3.4917724   -0.2394040   -3.9780219 
C     3.4936436   -1.7761524   -3.9518888 
H     1.4077802   -2.1062081   -4.3964061 
H     2.1471673   -3.4347054   -3.4843733 
H     2.1352905   -2.0852643   -1.3995418 
H     0.5125207   -2.0579845   -2.1047886 
H     2.9943064    1.4527662   -2.6994738 
H     3.7055866    0.0762398   -1.8260969 
H     2.8228675    0.1128194   -4.7878475 
H     4.5016872    0.1435392   -4.2105997 
H     4.2556090   -2.1280756   -3.2301248 
H     3.7998954   -2.1747031   -4.9353965 
