124
Energy =
C     0.4435192   -2.6145797   -1.4369940 
C     1.3678196   -1.7076207   -2.0302041 
C     2.5068683   -1.2476594   -1.3347800 
H     1.1356306   -1.2734493   -3.0101513 
Pd    0.5289350   -0.6968995   -0.2350268 
P     1.2463747    1.3692427    0.6189532 
P    -1.3854074   -0.7949814    1.1022903 
H     0.8452242   -3.2683565   -0.6512927 
H     2.8173354   -1.8187177   -0.4470669 
C    -3.0070741   -4.2237334   -3.4537382 
C    -2.5360816   -4.8030166   -2.2680702 
C    -1.4201848   -4.2641164   -1.6165914 
C    -0.7584304   -3.1211385   -2.1220440 
C    -1.2683119   -2.5305351   -3.3041497 
C    -2.3649538   -3.0854422   -3.9686855 
H    -3.8791383   -4.6426725   -3.9647249 
H    -3.0350492   -5.6830992   -1.8504966 
H    -1.0476603   -4.7464585   -0.7073304 
H    -0.7990668   -1.6298139   -3.7145073 
H    -2.7338845   -2.6202794   -4.8884791 
C     5.5999766    1.3294085   -2.8483366 
C     5.6998877    0.7579132   -1.5720873 
C     4.6818574   -0.0735502   -1.0919118 
C     3.5383893   -0.3504774   -1.8763160 
C     3.4615806    0.2204411   -3.1698208 
C     4.4776196    1.0514043   -3.6471039 
H     6.3959954    1.9790755   -3.2265619 
H     6.5723123    0.9603427   -0.9429905 
H     4.7653488   -0.5092135   -0.0906311 
H     2.6061812    0.0056602   -3.8175172 
H     4.4010444    1.4794030   -4.6521245 
Fe   -2.7106572    2.3798956    0.3040030 
C    -2.0579196    0.8484730    1.4657727 
C    -1.3053023    2.0653566    1.7456055 
C    -2.2654475    3.0585396    2.1640738 
C    -3.5771339    2.4821662    2.1439162 
C    -3.4586666    1.1245922    1.7078101 
C    -2.3024912    2.0842869   -1.6772315 
C    -3.7130680    1.9601188   -1.4240393 
C    -4.1695115    3.1979310   -0.8613638 
C    -3.0457980    4.0857753   -0.7679873 
C    -1.8940651    3.4008244   -1.2753444 
C     0.1854017    2.2926626    1.8896127 
H    -2.0217479    4.0888148    2.4331455 
H    -4.5091611    3.0012904    2.3748913 
H    -4.2723154    0.4117038    1.5636088 
H    -1.6457042    1.3161680   -2.0898669 
H    -4.3364639    1.0838377   -1.6033777 
H    -5.1883335    3.4137611   -0.5344481 
H    -3.0606998    5.0978112   -0.3591716 
H    -0.8869878    3.8091561   -1.3343935 
H     0.3644253    3.3535245    1.6430582 
C     0.6426347    2.0763402    3.3484123 
H     0.0176220    2.6960930    4.0139356 
H     0.5240892    1.0286144    3.6619461 
H     1.6967303    2.3680673    3.4837031 
C     5.5652863    1.1412569    2.4712962 
C     5.1861116    2.1982516    1.6276765 
C     3.8962835    2.2540841    1.0889283 
C     2.9283675    1.2732143    1.3844753 
C     3.2947338    0.1811435    2.2278274 
C     4.6034863    0.1491267    2.7426471 
H     5.9102258    2.9777974    1.3666104 
H     3.6579348    3.0647282    0.3967575 
H     4.8844788   -0.6963125    3.3826107 
C     1.4326254    4.3850883   -2.9042335 
C     1.6585668    4.8739281   -1.6040322 
C     1.6160917    3.9637848   -0.5294994 
C     1.3642878    2.5949583   -0.7496511 
C     1.1380247    2.1433800   -2.0617414 
C     1.1644970    3.0256988   -3.1538956 
H     1.4512996    5.0883300   -3.7454068 
H     1.7732665    4.3458578    0.4859809 
H     0.9050328    1.0847015   -2.2206095 
C     6.9484468    1.0622107    3.0739890 
H     6.9207252    1.3368512    4.1451024 
H     7.3551324    0.0378955    3.0120776 
H     7.6500198    1.7474114    2.5708266 
C     2.3604744   -0.9484480    2.5931925 
H     1.6408784   -0.6543263    3.3766028 
H     1.7540267   -1.2788652    1.7251789 
H     2.9172819   -1.8211387    2.9697750 
C     1.9171505    6.3427615   -1.3489477 
H     2.0208411    6.9049239   -2.2907794 
H     1.0878172    6.7942374   -0.7741222 
H     2.8393262    6.4873973   -0.7586852 
C     0.9197980    2.5273937   -4.5596557 
H     1.8750451    2.4194222   -5.1065948 
H     0.4221226    1.5429996   -4.5566134 
H     0.2908972    3.2297040   -5.1325019 
C    -0.3225814   -2.3211525    5.4020854 
C    -0.9985998   -1.1276286    5.2192125 
C    -1.3668478   -0.7041409    3.9157607 
C    -1.0716301   -1.4781751    2.7948527 
H    -0.0148531   -2.6381743    6.4044394 
H    -1.2429822   -0.4919707    6.0761917 
H    -1.8763492    0.2559147    3.7978077 
C    -0.4344325   -2.7569721    2.9689901 
C    -0.0321356   -3.1671114    4.2919846 
C     0.6398905   -4.4149109    4.4562620 
C     0.8902123   -5.2402046    3.3720547 
C     0.4576087   -4.8558361    2.0756242 
C    -0.1907127   -3.6458468    1.8861796 
H     0.9482481   -4.7154428    5.4635849 
H     1.4047898   -6.1958963    3.5139417 
H     0.6284432   -5.5250886    1.2251369 
H    -0.5523848   -3.3648164    0.8950149 
C    -3.2653857   -1.3919476   -0.8272884 
C    -2.8224288   -1.7196681    0.4505024 
C    -3.5036032   -2.7192286    1.2062088 
C    -4.6116789   -3.3548958    0.6719419 
H    -2.7153922   -0.6551841   -1.4189677 
H    -3.1518548   -2.9799414    2.2091002 
H    -5.1285437   -4.1283836    1.2505465 
C    -5.1132385   -3.0084793   -0.6171292 
C    -4.4326527   -1.9884894   -1.3757365 
C    -4.9467810   -1.6149193   -2.6531778 
C    -6.0804039   -2.2239572   -3.1640620 
C    -6.7395176   -3.2452594   -2.4259416 
C    -6.2661289   -3.6295776   -1.1814285 
H    -4.4241118   -0.8431213   -3.2282890 
H    -6.4702267   -1.9267291   -4.1431593 
H    -7.6303840   -3.7247998   -2.8446587 
H    -6.7800211   -4.4102973   -0.6099500 
