110
Energy =
C     3.0134887   -1.5897905   -0.5299741 
C     3.2497562   -0.4213132   -1.3051060 
C     3.2288508    0.8629469   -0.7149870 
H     3.3432634   -0.5078313   -2.3940327 
Pd    1.1946063   -0.2394896   -0.4965260 
P    -0.1113996    1.7150464   -0.6857835 
P    -0.2515676   -1.9188675    0.2611061 
H     3.2112311   -1.5180437    0.5490511 
H     3.3431643    0.9050509    0.3780893 
C     3.0296562   -5.6417517   -1.9771884 
C     2.9499488   -4.5802225   -2.8940169 
C     2.9442633   -3.2577056   -2.4427964 
C     3.0218877   -2.9636809   -1.0611454 
C     3.1259416   -4.0418615   -0.1528695 
C     3.1232155   -5.3662866   -0.6053418 
H     3.0272443   -6.6769583   -2.3334686 
H     2.8858878   -4.7875421   -3.9672318 
H     2.8674472   -2.4465341   -3.1747832 
H     3.2138527   -3.8318969    0.9178806 
H     3.1995411   -6.1853498    0.1173544 
C     4.2277329    4.5755091   -2.6360980 
C     3.9916175    4.5241583   -1.2545768 
C     3.6476577    3.3112825   -0.6474109 
C     3.5244292    2.1249482   -1.4082978 
C     3.7511590    2.1970564   -2.8029517 
C     4.1048002    3.4065256   -3.4058789 
H     4.5072160    5.5204932   -3.1132405 
H     4.0854897    5.4287804   -0.6449590 
H     3.4764843    3.2767313    0.4329058 
H     3.6570772    1.3022031   -3.4248657 
H     4.2824385    3.4401611   -4.4853506 
Fe   -3.1074469    0.3878235    3.3111757 
C    -1.7610924   -0.2270681    1.9187564 
C    -2.1740092    1.1434704    1.6470793 
C    -1.8803180    1.9285053    2.8225994 
H    -2.0729576    2.9976838    2.9211155 
C    -1.2611099    1.0793420    3.7948765 
H    -0.9356976    1.3796793    4.7924104 
C    -1.1963173   -0.2458025    3.2501946 
H    -0.8315266   -1.1334522    3.7689303 
C    -4.4265741   -1.1426290    3.6152622 
H    -4.3334343   -2.1597766    3.2288972 
C    -5.0822781   -0.0483914    2.9582547 
H    -5.5906775   -0.0962969    1.9935109 
C    -4.9625489    1.1111700    3.7987238 
H    -5.3531531    2.1083783    3.5868312 
C    -4.2376482    0.7298465    4.9767904 
H    -3.9654774    1.3884142    5.8036378 
C    -3.9071033   -0.6627995    4.8642405 
H    -3.3369337   -1.2468148    5.5892022 
C    -2.7489173    1.6912267    0.3884226 
C    -1.9578098    1.8739716   -0.7801221 
C    -2.5714449    2.3140975   -1.9716871 
H    -1.9745446    2.4481616   -2.8772414 
C    -3.9395804    2.6151629   -2.0098942 
H    -4.3939605    2.9520152   -2.9471732 
C    -4.7046693    2.5136010   -0.8420197 
H    -5.7671300    2.7779716   -0.8493601 
C    -4.1072613    2.0548088    0.3382230 
H    -4.6945463    1.9480122    1.2520179 
C    -0.7093173   -3.1747698   -0.9938891 
C    -1.5485571   -4.2757955   -0.7075206 
H    -1.9449691   -4.4258954    0.3024647 
C    -1.9062733   -5.1731373   -1.7210667 
C    -1.4435601   -4.9778580   -3.0327146 
H    -1.7263735   -5.6813931   -3.8225523 
C    -0.6318079   -3.8754748   -3.3303506 
C    -0.2702250   -2.9775532   -2.3165807 
H     0.3601689   -2.1105233   -2.5437358 
C     0.6059578   -2.7919355    1.6441394 
C     1.3835891   -2.0018376    2.5198046 
H     1.4433138   -0.9187803    2.3587487 
C     2.0797105   -2.5866034    3.5854790 
C     2.0132272   -3.9742327    3.7899491 
H     2.5620802   -4.4348821    4.6177119 
C     1.2501440   -4.7677890    2.9217891 
C     0.5535736   -4.1839487    1.8526730 
H     0.0035266   -4.8283636    1.1631488 
C    -1.9237603   -1.4415814    1.0377916 
H    -2.1485231   -2.2964423    1.7012318 
C    -3.0254422   -1.3293017   -0.0311972 
H    -3.9169851   -0.8712332    0.4261009 
H    -2.7212629   -0.6990386   -0.8816284 
H    -3.2979961   -2.3203757   -0.4231683 
C     0.9575780    3.3292380   -4.9192581 
C     0.6836076    1.9703467   -4.7007320 
C     0.4090325    1.5121967   -3.4055603 
C     0.3904037    2.4126626   -2.3168920 
C     0.6876043    3.7688745   -2.5397402 
C     0.9708110    4.2203812   -3.8369468 
H     1.1728625    3.6901220   -5.9302896 
H     0.6819602    1.2662007   -5.5394223 
H     0.1874877    0.4509934   -3.2352025 
H     0.7161338    4.4743569   -1.7055285 
H     1.2105326    5.2763386   -3.9975780 
C     0.8124346    4.7918789    2.6794741 
C    -0.0741531    5.1374196    1.6463834 
C    -0.3550620    4.2223319    0.6232512 
C     0.2722599    2.9584818    0.6132361 
C     1.1391286    2.6109920    1.6655503 
C     1.4107292    3.5234024    2.6939179 
H     1.0232194    5.5069554    3.4815142 
H    -0.5574072    6.1200051    1.6435457 
H    -1.0800154    4.4818939   -0.1557593 
H     1.5768391    1.6070842    1.6889492 
H     2.0797704    3.2390702    3.5127061 
H    -2.5558560   -6.0233548   -1.4886434 
H    -0.2755010   -3.7135215   -4.3527728 
H     2.6788238   -1.9591170    4.2535897 
H     1.2063234   -5.8525664    3.0644186 
