124
Energy =
C     2.0838677    1.4828130    1.4634201 
C     2.3312348    1.8166481    0.0974703 
C     1.3987910    2.5842553   -0.6339906 
H     3.2112597    1.3991765   -0.4093390 
Pd    0.5147297    0.5847806    0.1113422 
P    -0.7107783   -0.2053119   -1.7216871 
P    -0.5733876   -0.8142044    1.6739681 
H     1.4588564    2.1734175    2.0483337 
H     0.6853118    3.1673506   -0.0316801 
C     4.9017275   -0.8247534    3.7617574 
C     4.6782012   -1.1370487    2.4110138 
C     3.7613334   -0.3961206    1.6594667 
C     3.0389097    0.6700738    2.2423495 
C     3.2786777    0.9771971    3.6008318 
C     4.2022324    0.2393466    4.3514817 
H     5.6192300   -1.4056549    4.3503230 
H     5.2131457   -1.9705324    1.9439383 
H     3.5792474   -0.6648472    0.6139059 
H     2.7376061    1.8088775    4.0641874 
H     4.3791573    0.4984108    5.4006291 
C     1.8773090    4.1105466   -4.6184085 
C     1.1148700    4.8048496   -3.6687852 
C     0.9424235    4.2737915   -2.3858813 
C     1.5505483    3.0502276   -2.0172911 
C     2.3131051    2.3599532   -2.9882937 
C     2.4700691    2.8840807   -4.2734355 
H     1.9948820    4.5122092   -5.6293938 
H     0.6444163    5.7568005   -3.9328001 
H     0.3505378    4.8238390   -1.6452631 
H     2.7730650    1.3977360   -2.7420764 
H     3.0492090    2.3284258   -5.0175209 
Fe   -3.4094338    1.3411594   -0.3646680 
C    -2.4647266   -0.2295762   -1.2598890 
C    -2.9638812   -0.6119769    0.0574789 
C    -4.3894922   -0.3976333    0.0362472 
C    -4.7707498    0.1041974   -1.2485416 
C    -3.5917006    0.2097713   -2.0519329 
C    -4.5462592    2.9950207   -0.0097809 
C    -3.8466763    2.6041026    1.1808953 
C    -2.4371693    2.6370958    0.9015634 
C    -2.2726936    3.0508762   -0.4601798 
C    -3.5722776    3.2708404   -1.0262037 
C    -2.3008335   -1.4104231    1.1612683 
H    -5.0602606   -0.5885523    0.8768384 
H    -5.7790421    0.3888577   -1.5545461 
H    -3.5416231    0.5711590   -3.0798319 
H    -5.6299791    3.0514990   -0.1267519 
H    -4.3135380    2.3311638    2.1279169 
H    -1.6323567    2.3990379    1.5986176 
H    -1.3217473    3.1627239   -0.9796227 
H    -3.7878964    3.5721276   -2.0531844 
H    -2.9214012   -1.2734143    2.0636090 
C    -2.3082684   -2.9191164    0.8122957 
H    -3.2914970   -3.1838010    0.3864980 
H    -1.5320520   -3.1728589    0.0759609 
H    -2.1386643   -3.5356683    1.7075992 
C     1.9521297   -4.6385967    2.5904076 
C     2.2108040   -3.8003749    1.4929871 
C     1.4282895   -2.6625759    1.2808027 
C     0.3617569   -2.3259851    2.1352190 
C     0.0642478   -3.1712703    3.2434622 
C     0.8774964   -4.3021714    3.4375541 
H     3.0258330   -4.0288624    0.7982676 
H     1.6432770   -2.0129693    0.4291767 
H     0.6524741   -4.9597153    4.2864745 
C    -1.2364208    1.3777261    5.7043419 
C    -2.2849685    1.3690512    4.7682100 
C    -2.0846373    0.7007218    3.5447985 
C    -0.8624118    0.0666413    3.2612765 
C     0.1735675    0.0920158    4.2168693 
C    -0.0050554    0.7402440    5.4510400 
H    -1.3880076    1.8788311    6.6681096 
H    -2.8975807    0.6705339    2.8132096 
H     1.1094771   -0.4385753    4.0161803 
C     2.8072114   -5.8517990    2.8733710 
H     3.5722244   -5.6140922    3.6368119 
H     2.2047789   -6.6890288    3.2651155 
H     3.3358429   -6.1939330    1.9683007 
C    -1.0659907   -2.9290671    4.2227913 
H    -1.9121047   -2.3842900    3.7764014 
H    -1.4422358   -3.8868372    4.6187630 
H    -0.7215232   -2.3220039    5.0796411 
C    -3.5947711    2.0707339    5.0540338 
H    -4.4510424    1.5084788    4.6426698 
H    -3.7572291    2.2002967    6.1365161 
H    -3.6069213    3.0770487    4.5940854 
C     1.0948143    0.7497065    6.4901126 
H     1.6253315    1.7208099    6.4917203 
H     0.6868341    0.6020292    7.5046092 
H     1.8401461   -0.0377731    6.2942332 
C     0.2848219   -4.6838546   -2.6440372 
C    -1.0212665   -4.2261905   -2.6653197 
C    -1.3024522   -2.8612480   -2.4030789 
C    -0.2808625   -1.9567318   -2.1259554 
H     0.5053921   -5.7410565   -2.8268469 
H    -1.8464984   -4.9147846   -2.8723407 
H    -2.3434203   -2.5212645   -2.3975210 
C     1.0894456   -2.3930026   -2.1598331 
C     1.3669648   -3.7883495   -2.4011921 
C     2.7220202   -4.2364217   -2.4069742 
C     3.7696455   -3.3521206   -2.2099115 
C     3.5015515   -1.9719279   -2.0084954 
C     2.1957744   -1.5087297   -1.9871851 
H     2.9206358   -5.2995606   -2.5809486 
H     4.8041747   -3.7099194   -2.2236296 
H     4.3321437   -1.2702977   -1.8759651 
H     1.9962603   -0.4424441   -1.8289131 
C    -1.2093397    1.8516628   -3.5707664 
C    -0.6216722    0.6055427   -3.3690606 
C     0.0880644   -0.0115141   -4.4456749 
C     0.1879768    0.6198559   -5.6726935 
H    -1.7631205    2.3256184   -2.7601020 
H     0.5492147   -0.9926261   -4.3090040 
H     0.7341337    0.1350130   -6.4893146 
C    -0.4070397    1.8936229   -5.9021850 
C    -1.1358983    2.5141336   -4.8257696 
C    -1.7430104    3.7865873   -5.0419369 
C    -1.6266504    4.4248439   -6.2650294 
C    -0.8986086    3.8169748   -7.3252456 
C    -0.3040835    2.5777208   -7.1487337 
H    -2.2908718    4.2585715   -4.2187806 
H    -2.0931259    5.4030679   -6.4212917 
H    -0.8135005    4.3335617   -8.2869201 
H     0.2519964    2.1073742   -7.9671358 
