94
Energy =
C     0.1152013    1.8788619    2.4970942 
C    -0.6702367    2.6092020    1.5726090 
C    -1.9650908    2.1583930    1.1808868 
H    -0.2218853    3.4642096    1.0498332 
Pd   -0.4272715    0.6347949    0.6544222 
P    -1.6888187   -0.5308532   -0.9278661 
P     1.5730727   -0.5093003    0.1838906 
H    -0.4174785    1.2031671    3.1844797 
H    -2.5510111    1.5796348    1.9098240 
C     3.9887898    3.1294392    3.8607235 
C     3.5907265    3.4156120    2.5432032 
C     2.3470270    2.9868351    2.0743218 
C     1.4671608    2.2687955    2.9185758 
C     1.8963364    1.9552049    4.2276254 
C     3.1411609    2.3915010    4.6982916 
H     4.9629402    3.4706297    4.2255593 
H     4.2590499    3.9726054    1.8785767 
H     2.0594993    3.1950096    1.0380598 
H     1.2320381    1.3867228    4.8883349 
H     3.4486659    2.1559005    5.7223224 
C    -4.2578089    4.1256347   -1.8896144 
C    -2.8576450    4.0633424   -1.9930981 
C    -2.1075104    3.4220040   -1.0024145 
C    -2.7399032    2.8304311    0.1167478 
C    -4.1454031    2.9013797    0.2057637 
C    -4.8969054    3.5434649   -0.7862688 
H    -4.8450699    4.6251226   -2.6668651 
H    -2.3513139    4.5149214   -2.8530918 
H    -1.0179470    3.3553662   -1.1045892 
H    -4.6495655    2.4523346    1.0674522 
H    -5.9872361    3.5854667   -0.6979333 
Fe    0.8405499   -0.0352245   -3.1638778 
C    -1.0664825   -0.4690338   -2.6339782 
C    -0.5116807   -1.5336694   -3.4398229 
H    -0.4263680   -2.5789350   -3.1439226 
C    -0.1251068   -0.9726985   -4.7015790 
H     0.3432358   -1.5165447   -5.5237695 
C    -0.4370496    0.4276522   -4.6868900 
H    -0.2421950    1.1363918   -5.4937742 
C    -1.0101634    0.7485487   -3.4119425 
C     2.0133086   -0.0498269   -1.5170962 
C     1.8295770    1.2970184   -2.0130969 
H     1.3823372    2.1226341   -1.4555011 
C     2.3299414    1.3432642   -3.3547945 
H     2.3131925    2.2128060   -4.0141834 
C     2.8193292    0.0370711   -3.6939096 
H     3.2370963   -0.2595003   -4.6578136 
C     2.6363465   -0.8230531   -2.5644258 
H    -1.3490661    1.7305479   -3.0782034 
H     2.9143361   -1.8750758   -2.5027499 
C    -3.4345982   -0.1146084   -1.1779835 
C    -4.2053420    0.2157905   -2.2719009 
C    -5.5576700    0.2716275   -1.8055296 
C    -5.5335304   -0.0277173   -0.4620906 
H    -3.8455412    0.3839078   -3.2862136 
H    -6.4452249    0.5063467   -2.3931201 
O    -4.2381209   -0.2574873   -0.0690364 
C    -6.5818200   -0.1325635    0.5901627 
H    -6.4268207    0.6179855    1.3871391 
H    -7.5751025    0.0315714    0.1457609 
H    -6.5681707   -1.1295559    1.0655930 
C    -1.7758290   -2.2751771   -0.4680683 
C    -2.2321329   -3.4299241   -1.0715671 
C    -2.1379909   -4.4640899   -0.0910515 
C    -1.6518012   -3.8801256    1.0606894 
H    -2.6032347   -3.5166193   -2.0931725 
H    -2.4028586   -5.5144489   -0.2136272 
O    -1.4312108   -2.5504931    0.8390545 
C    -1.3740941   -4.3794948    2.4357228 
H    -0.4313113   -3.9520140    2.8138443 
H    -2.1808003   -4.0898733    3.1344889 
H    -1.2957597   -5.4772694    2.4331200 
C     3.0949175   -0.0929388    1.0814507 
C     3.5493894   -0.3676663    2.3539742 
C     4.8659490    0.1810254    2.4362839 
C     5.1322166    0.7715821    1.2199574 
H     3.0073623   -0.9131517    3.1247903 
H     5.5353852    0.1565482    3.2958154 
C     1.6285948   -2.3254768    0.2082046 
C     1.3460525   -3.3199671   -0.7020088 
C     1.5595196   -4.5627801   -0.0225241 
C     1.9548357   -4.2570692    1.2595595 
H     1.0283281   -3.1732007   -1.7313658 
H     1.4478054   -5.5639741   -0.4382252 
O     4.0557259    0.6100929    0.3887423 
O     1.9820640   -2.8916070    1.4109020 
C     6.2965126    1.5179423    0.6677955 
H     6.7114971    1.0092897   -0.2208932 
H     6.0027974    2.5380227    0.3604728 
H     7.0868463    1.5944951    1.4297895 
C     2.3810563   -5.0704850    2.4328208 
H     2.2464970   -6.1404295    2.2126595 
H     3.4462300   -4.8939000    2.6693283 
H     1.7946760   -4.8203256    3.3347303 
