98
Energy =
C    -0.7458931   -2.9574049    0.4204849 
C    -1.3971872   -2.2773928    1.4768651 
C    -2.4533120   -1.3645838    1.2265436 
H    -1.0180604   -2.3829908    2.5004423 
Pd   -0.5154521   -0.6800550    0.2198294 
P    -1.0869216    1.6092156    0.0447140 
P     1.5357360   -0.7405880   -0.9500100 
H    -1.2982784   -3.0422795   -0.5265241 
H    -3.0039967   -1.4847645    0.2813087 
C     2.4466257   -5.8153012    0.8314625 
C     1.7026734   -5.7365160   -0.3553169 
C     0.6566432   -4.8122389   -0.4677517 
C     0.3365493   -3.9392252    0.5978055 
C     1.0810059   -4.0489116    1.7961095 
C     2.1228732   -4.9744074    1.9100746 
H     3.2662530   -6.5352352    0.9218210 
H     1.9335044   -6.4011495   -1.1941693 
H     0.0717412   -4.7673085   -1.3928506 
H     0.8559733   -3.3925281    2.6421493 
H     2.6903709   -5.0390725    2.8441265 
C    -4.7188853    0.5799638    4.3315331 
C    -3.3856132    0.2074203    4.5724841 
C    -2.6344462   -0.4143042    3.5694762 
C    -3.1993024   -0.6800648    2.3002585 
C    -4.5464874   -0.3111772    2.0784689 
C    -5.2977353    0.3139022    3.0817584 
H    -5.3038098    1.0691420    5.1168757 
H    -2.9285003    0.4070641    5.5471990 
H    -1.5929058   -0.6859115    3.7702497 
H    -5.0121795   -0.5329468    1.1113195 
H    -6.3399013    0.5881160    2.8889831 
Fe    1.5046923    2.4896399   -1.8599959 
C     2.4114255    0.8401284   -1.1827748 
C     2.4699253    1.8844918   -0.1836147 
H     2.0549833    1.8184469    0.8223056 
C     3.1505602    3.0123188   -0.7448462 
H     3.3243169    3.9668224   -0.2451398 
C     3.5362494    2.6785831   -2.0840004 
H     4.0542722    3.3344456   -2.7859007 
C     3.0950941    1.3426535   -2.3599541 
C    -0.4530680    2.4734212   -1.4297657 
C    -0.2103156    1.8530995   -2.7145667 
H    -0.4490097    0.8207794   -2.9731251 
C     0.4203891    2.8133887   -3.5699357 
H     0.7542417    2.6348775   -4.5934350 
C     0.5688587    4.0349262   -2.8355726 
H     1.0350875    4.9513904   -3.2014535 
C     0.0326780    3.8382149   -1.5211647 
H     3.2357194    0.8165130   -3.3051343 
H     0.0137632    4.5889835   -0.7301514 
C    -0.5286553    2.7458367    1.4444832 
C    -1.7190509    3.7163393    1.6269661 
C    -3.0114897    2.8996712    1.4726957 
C    -2.9292985    2.0650534    0.1690821 
H     0.3640097    3.2726042    1.0662409 
H    -1.6700770    4.2200673    2.6087562 
H    -1.6828889    4.5099574    0.8585780 
H    -3.1224183    2.2150600    2.3328523 
H    -3.9073239    3.5451117    1.4622768 
H    -3.4755405    1.1199171    0.3110377 
C     1.4462608   -1.4478534   -2.7003409 
C     2.5836441   -2.5055265   -2.7718438 
C     3.6600724   -2.1787727   -1.7244443 
C     2.9461521   -1.8600785   -0.3938470 
H     1.6825127   -0.5907622   -3.3558786 
H     2.1549871   -3.4985549   -2.5437377 
H     3.0074746   -2.5590465   -3.7893760 
H     4.3631514   -3.0207542   -1.5919223 
H     4.2599171   -1.3038974   -2.0400901 
H     2.4679408   -2.7797401   -0.0142820 
C     3.8497992   -1.2604934    0.6939589 
H     4.6868328   -1.9656122    0.8578304 
H     4.3058711   -0.3277380    0.3119576 
C     3.1420310   -0.9938779    2.0281405 
H     3.8178588   -0.4979448    2.7451943 
H     2.2566236   -0.3444556    1.8920240 
H     2.7905856   -1.9341556    2.4839912 
C     0.0608540   -1.9849898   -3.1064693 
H    -0.1758438   -2.8686493   -2.4877759 
H    -0.7159069   -1.2332255   -2.8674959 
C    -0.0200869   -2.3580197   -4.5928174 
H    -1.0283459   -2.7224768   -4.8537229 
H     0.2007444   -1.4840251   -5.2322252 
H     0.7014388   -3.1529822   -4.8497253 
C    -0.1410608    1.9770050    2.7251348 
H     0.4527798    1.0845612    2.4463755 
H    -1.0550900    1.5894512    3.2072705 
C     0.6551614    2.8343548    3.7172861 
H     0.9056741    2.2568676    4.6236743 
H     1.6017722    3.1856706    3.2671270 
H     0.0862171    3.7251681    4.0366569 
C    -3.5036158    2.7568153   -1.0841809 
H    -2.8495398    3.5872971   -1.4079981 
H    -4.4642031    3.2203192   -0.7886009 
C    -3.7544230    1.7885534   -2.2466085 
H    -4.4832397    1.0096869   -1.9567677 
H    -4.1562307    2.3180080   -3.1269065 
H    -2.8269825    1.2786643   -2.5600290 
