118
Energy =
C    -0.4224354   -0.0251338   -3.1143500 
C    -0.6847968    1.2980128   -2.6885742 
C     0.3238434    2.1281181   -2.1415219 
H    -1.7166598    1.6680872   -2.7144230 
Pd   -0.0019066    0.2712167   -0.8327403 
P     0.7373019    1.3485772    1.1522187 
P    -0.1640386   -1.9825032   -0.1596543 
H     0.6248703   -0.2826550   -3.3282042 
H     1.3665371    1.8547807   -2.3653902 
C    -3.2558904   -2.6100674   -5.0770878 
C    -1.8791460   -2.8703484   -5.1419475 
C    -0.9733722   -2.0129316   -4.5055336 
C    -1.4183850   -0.8863903   -3.7754185 
C    -2.8092204   -0.6256684   -3.7429934 
C    -3.7140037   -1.4754972   -4.3855279 
H    -3.9680190   -3.2768656   -5.5735979 
H    -1.5075622   -3.7377567   -5.6973769 
H     0.1013708   -2.2085680   -4.5812697 
H    -3.1944230    0.2413454   -3.1963120 
H    -4.7858695   -1.2559435   -4.3439527 
C    -0.1545707    6.2800215   -1.0877022 
C     1.1177695    5.7415690   -1.3297671 
C     1.2519471    4.3938598   -1.6846656 
C     0.1234709    3.5449769   -1.7842575 
C    -1.1532218    4.1106478   -1.5581454 
C    -1.2886129    5.4607668   -1.2193974 
H    -0.2654631    7.3340931   -0.8142639 
H     2.0077865    6.3749372   -1.2552856 
H     2.2470738    3.9913450   -1.9051824 
H    -2.0510995    3.4895353   -1.6336682 
H    -2.2865453    5.8792545   -1.0532237 
Fe    1.2939410   -1.5339643    2.9700217 
C     0.9678896    0.4404291    2.7166943 
C     2.1832477    0.2114297    3.4729198 
H     3.1905176    0.5111243    3.1855833 
C     1.8465591   -0.5191046    4.6594967 
H     2.5558358   -0.8676876    5.4122738 
C     0.4332999   -0.7500630    4.6585258 
H    -0.1297401   -1.2988672    5.4152841 
C    -0.1114817   -0.1623601    3.4717487 
C     0.8470595   -2.5110453    1.2601837 
C     0.4572441   -3.3069520    2.4055222 
H    -0.5496832   -3.6566999    2.6365463 
C     1.6224066   -3.5464468    3.2041054 
H     1.6439132   -4.0895001    4.1506947 
C     2.7414291   -2.9157093    2.5683792 
H     3.7656244   -2.8946607    2.9449855 
C     2.2722720   -2.2741399    1.3753149 
H    -1.1622478   -0.1626952    3.1876459 
H     2.8762030   -1.6858036    0.6847938 
H    -1.8238711   -3.5973594    0.5617295 
H    -0.2642528   -2.9340503   -2.3481559 
H     2.0727883    2.7467332   -0.1470710 
H    -0.1738008    3.5489600    0.9209411 
C    -4.2411013   -2.8687599   -0.7066122 
C    -2.7962141   -2.4328532   -0.9989181 
C    -1.9026941   -2.5370709    0.2524870 
C    -2.5130642   -1.7235933    1.4110738 
C    -3.9613450   -2.1548788    1.7037934 
C    -4.8458492   -2.0596613    0.4510309 
H    -4.2532462   -3.9467077   -0.4517563 
H    -4.8467321   -2.7543025   -1.6236556 
H    -2.7942994   -1.3774798   -1.3276055 
H    -2.3881918   -3.0221267   -1.8382708 
H    -1.8945197   -1.8343114    2.3156197 
H    -2.4915933   -0.6512966    1.1334522 
H    -3.9593710   -3.1993167    2.0733179 
H    -4.3727444   -1.5335638    2.5199400 
H    -4.9319338   -0.9972754    0.1465336 
H    -5.8694109   -2.4089896    0.6749348 
C     0.6312353   -5.5685656   -2.2983320 
C     0.2056076   -4.6598942   -1.1282074 
C     0.3985231   -3.1734894   -1.4962061 
C     1.8554832   -2.8980280   -1.9291775 
C     2.2791171   -3.8149998   -3.0918777 
C     2.0801534   -5.2958732   -2.7311231 
H    -0.0486782   -5.3919518   -3.1553364 
H     0.5061904   -6.6269858   -2.0077030 
H     0.8109832   -4.8958424   -0.2316754 
H    -0.8484045   -4.8639092   -0.8701150 
H     1.9794633   -1.8324880   -2.2023379 
H     2.5296546   -3.0883506   -1.0744048 
H     1.6802011   -3.5756414   -3.9919576 
H     3.3339744   -3.6167022   -3.3537636 
H     2.7650571   -5.5634957   -1.9024605 
H     2.3532100   -5.9385628   -3.5869215 
C     4.6516516    1.7881114   -0.3366185 
C     3.3994491    1.1048880    0.2392710 
C     2.3728122    2.1508031    0.7325975 
C     2.9829889    3.1501140    1.7384348 
C     4.2505832    3.8003986    1.1478770 
C     5.2753397    2.7537748    0.6837287 
H     4.3714559    2.3498466   -1.2504233 
H     5.3843846    1.0226805   -0.6492700 
H     3.6972526    0.4456610    1.0751988 
H     2.9246414    0.4546678   -0.5217431 
H     2.2490010    3.9385301    1.9737312 
H     3.2309843    2.6472600    2.6902561 
H     3.9595628    4.4328387    0.2857358 
H     4.6979212    4.4776950    1.8970676 
H     5.6339077    2.1766752    1.5594268 
H     6.1612845    3.2507594    0.2503423 
C    -1.2413971    4.4441017    3.3251786 
C    -0.2842474    3.2630385    3.0749701 
C    -0.4380255    2.7390024    1.6289974 
C    -1.9054591    2.3271024    1.3640552 
C    -2.8775891    3.4863359    1.6459438 
C    -2.7020023    4.0403128    3.0690277 
H    -0.9667920    5.2848312    2.6579013 
H    -1.1159338    4.8056764    4.3614494 
H    -0.5213616    2.4486860    3.7839886 
H     0.7557836    3.5618451    3.2821748 
H    -2.0137729    1.9647833    0.3238390 
H    -2.1651521    1.4739567    2.0195612 
H    -2.6881075    4.2959879    0.9170776 
H    -3.9167900    3.1461091    1.4849990 
H    -2.9990083    3.2662767    3.8042204 
H    -3.3747086    4.9018346    3.2282911 
