124
Energy =
C     1.7925220    1.6494380    2.2549750 
C     1.9145465    0.3509985    2.8493942 
C     2.6201707   -0.6756671    2.1945130 
H     1.3480117    0.1208289    3.7607958 
Pd    0.8604001    0.1271294    0.9212773 
P    -0.1973081   -1.8285140    0.1422339 
P     0.0167431    1.5973733   -0.7091955 
H     2.6581572    2.0091363    1.6835455 
H     3.2680405   -0.3780727    1.3545824 
C    -0.7144685    4.7118225    3.9693195 
C    -1.0735450    3.3586562    4.0882605 
C    -0.2681525    2.3629243    3.5260710 
C     0.9292368    2.6937357    2.8466268 
C     1.2815542    4.0586323    2.7440950 
C     0.4657426    5.0564248    3.2936617 
H    -1.3499309    5.4906839    4.4027817 
H    -1.9931465    3.0800888    4.6133669 
H    -0.5807561    1.3144569    3.5940891 
H     2.2123732    4.3383670    2.2402603 
H     0.7597804    6.1074365    3.2042497 
C     3.3863079   -4.6653388    3.5917646 
C     3.7663324   -4.2708689    2.2985322 
C     3.5227822   -2.9630952    1.8661566 
C     2.8750148   -2.0278808    2.7081001 
C     2.5190952   -2.4325227    4.0161710 
C     2.7742158   -3.7378363    4.4511060 
H     3.5803663   -5.6865696    3.9347961 
H     4.2594686   -4.9835609    1.6294178 
H     3.8255508   -2.6546158    0.8591023 
H     2.0472891   -1.7221453    4.7021113 
H     2.4951382   -4.0345606    5.4671882 
Fe   -2.4130121    0.5809474   -3.3202147 
C    -0.7215259    0.7271294   -2.1459445 
C    -1.3097401   -0.6047627   -2.0906387 
C    -1.3379228   -1.1327101   -3.4300510 
C    -0.8014796   -0.1450756   -4.3197890 
C    -0.4432645    1.0037902   -3.5439401 
C    -3.9091958    1.9203146   -2.8423808 
C    -3.4662719    2.1088536   -4.1919618 
C    -3.6686652    0.8727941   -4.8934773 
C    -4.2267842   -0.0774712   -3.9708741 
C    -4.3704003    0.5712147   -2.6982598 
C    -1.7392460   -1.3224499   -0.8403270 
H    -1.7416864   -2.1009352   -3.7291759 
H    -0.7233091   -0.2343747   -5.4047308 
H    -0.0151796    1.9234330   -3.9444364 
H    -3.9085841    2.6756223   -2.0596327 
H    -3.0519522    3.0272472   -4.6112595 
H    -3.4228408    0.6796672   -5.9392983 
H    -4.4804783   -1.1146358   -4.1987433 
H    -4.7744362    0.1280227   -1.7861730 
H    -2.1851798   -0.5715309   -0.1632622 
C    -2.7943293   -2.4126442   -1.1036984 
H    -3.5841498   -1.9854842   -1.7436694 
H    -2.3804560   -3.2917025   -1.6196700 
H    -3.2677978   -2.7538489   -0.1697973 
H     0.9044921    3.0343376   -2.4221595 
C     3.5637303    2.3806109   -2.8616945 
C     2.5007456    1.6096101   -2.0591335 
C     1.3939543    2.5590348   -1.5498094 
C     2.0115026    3.6815592   -0.6943570 
C     3.0574474    4.4663015   -1.5085165 
C     4.1598943    3.5389630   -2.0454383 
H     3.0962282    2.7813068   -3.7829202 
H     4.3586162    1.6864163   -3.1890097 
H     2.9728046    1.1240985   -1.1807334 
H     2.0683431    0.8015921   -2.6734563 
H     1.2386300    4.3656733   -0.3054712 
H     2.5074052    3.2306510    0.1813890 
H     2.5531801    4.9732609   -2.3546518 
H     3.4939893    5.2627120   -0.8792045 
H     4.7321287    3.1247855   -1.1912918 
H     4.8790839    4.1109008   -2.6581332 
H    -0.5864987    3.3158575    0.8038572 
C    -3.3552877    3.2030200    1.1993517 
C    -2.4034013    2.1791875    0.5554719 
C    -1.1571280    2.8718916   -0.0358383 
C    -1.5336962    3.9869472   -1.0308828 
C    -2.4830174    5.0045927   -0.3669294 
C    -3.7324466    4.3349987    0.2295458 
H    -2.8526507    3.6384920    2.0826087 
H    -4.2622903    2.6896440    1.5670642 
H    -2.9204951    1.6284855   -0.2539499 
H    -2.0838565    1.4309269    1.3060022 
H    -0.6301535    4.5112659   -1.3874414 
H    -2.0035957    3.5296770   -1.9199151 
H    -1.9313695    5.5235852    0.4413400 
H    -2.7723432    5.7774282   -1.1016141 
H    -4.3651458    3.9331415   -0.5860069 
H    -4.3519476    5.0869474    0.7498638 
H     1.5447839   -3.3812980   -0.0770000 
C     2.8953382   -3.0109817   -2.4547253 
C     1.8474520   -2.1068450   -1.7819505 
C     0.9116944   -2.9327330   -0.8700713 
C     0.2395743   -4.0802057   -1.6525914 
C     1.3031835   -4.9812525   -2.3079114 
C     2.2350935   -4.1686528   -3.2220917 
H     3.5678122   -3.4263418   -1.6773639 
H     3.5282649   -2.4078341   -3.1305103 
H     1.2494088   -1.5894006   -2.5547845 
H     2.3423939   -1.3191102   -1.1845228 
H    -0.4166602   -4.6761362   -0.9933189 
H    -0.3990667   -3.6480430   -2.4440671 
H     1.8994848   -5.4733242   -1.5140947 
H     0.8078147   -5.7878515   -2.8775655 
H     1.6468339   -3.7562096   -4.0657340 
H     3.0058960   -4.8242705   -3.6648099 
H    -1.8337094   -3.3595772    1.0688853 
C    -2.0834188   -2.7601677    3.7854382 
C    -1.3993760   -1.9617232    2.6627472 
C    -0.9383179   -2.8855018    1.5107728 
C    -0.0271152   -4.0168539    2.0273322 
C    -0.7106738   -4.7989020    3.1646024 
C    -1.1641802   -3.8757720    4.3068080 
H    -3.0208715   -3.2046472    3.3968738 
H    -2.3734181   -2.0778202    4.6048984 
H    -0.5092625   -1.4404822    3.0684307 
H    -2.0760795   -1.1739781    2.2801156 
H     0.2292803   -4.7115075    1.2091463 
H     0.9192829   -3.5921498    2.3954228 
H    -1.5896186   -5.3394492    2.7607108 
H    -0.0125244   -5.5669661    3.5436621 
H    -0.2728422   -3.4197297    4.7802039 
H    -1.6769544   -4.4604803    5.0911832 
