118
Energy =
C    -0.7012746   -0.1560909   -3.0754512 
C    -0.6055550    1.2254617   -2.7696580 
C     0.6346158    1.8418245   -2.4862228 
H    -1.5241563    1.8180394   -2.6740909 
Pd    0.1437422    0.2052383   -0.9576540 
P     1.0404655    1.3613544    0.9373192 
P    -0.4043039   -1.9368807   -0.0740397 
H     0.2018738   -0.6388685   -3.4753290 
H     1.5404610    1.3374912   -2.8547588 
C    -4.3985483   -2.0180062   -4.2739615 
C    -4.4242105   -0.8648378   -3.4720689 
C    -3.2308157   -0.2683404   -3.0531496 
C    -1.9781167   -0.7982954   -3.4433363 
C    -1.9703625   -1.9471818   -4.2683775 
C    -3.1652839   -2.5552365   -4.6717412 
H    -5.3342802   -2.4874183   -4.5936839 
H    -5.3821515   -0.4311103   -3.1676868 
H    -3.2754487    0.6155815   -2.4084350 
H    -1.0149664   -2.3549136   -4.6134064 
H    -3.1332173   -3.4429554   -5.3118269 
C     1.1757248    6.0436533   -1.7283890 
C     2.1734567    5.2963258   -2.3713015 
C     1.9806653    3.9307217   -2.6170098 
C     0.7847596    3.2860352   -2.2304095 
C    -0.2241994    4.0587707   -1.6091576 
C    -0.0274232    5.4195273   -1.3549362 
H     1.3292075    7.1082893   -1.5253317 
H     3.1080098    5.7769777   -2.6781104 
H     2.7668751    3.3494407   -3.1108263 
H    -1.1601686    3.5849501   -1.2974675 
H    -0.8146369    5.9982402   -0.8603238 
Fe    1.1905347   -1.4262312    2.9311902 
C     1.8345465    0.3229388    2.2073060 
C     2.7079774   -0.7508228    1.7789485 
H     2.8966800   -1.0171934    0.7400388 
C     3.2450289   -1.3988202    2.9358648 
H     3.9100787   -2.2640845    2.9347301 
C     2.7296935   -0.7293696    4.0924203 
H     2.9268194   -0.9977723    5.1320087 
C     1.8723563    0.3353244    3.6581076 
C    -0.2151963   -2.2104321    1.7224639 
C    -0.8109595   -1.3852732    2.7552246 
H    -1.4009426   -0.4842189    2.5891490 
C    -0.4561826   -1.9274457    4.0335364 
H    -0.7331648   -1.5091363    5.0027311 
C     0.3602865   -3.0836446    3.8145389 
H     0.8159119   -3.7046871    4.5877691 
C     0.5091425   -3.2678592    2.4011111 
H     1.3294267    1.0057160    4.3205209 
H     1.0844051   -4.0654881    1.9299185 
H    -2.3060106   -2.4324171   -1.4619231 
H     0.3200943   -4.2309522   -0.2220936 
H     1.9491471    3.3276705   -0.0959419 
H    -0.1180330    3.4066829    1.1763549 
C    -4.6363750   -1.8607699    0.0069654 
C    -3.1735962   -1.4474568    0.2486626 
C    -2.1862158   -2.4651023   -0.3621620 
C    -2.4766604   -3.8967162    0.1388402 
C    -3.9449351   -4.2863719   -0.1180076 
C    -4.9132976   -3.2808436    0.5228111 
H    -4.8465470   -1.8226855   -1.0773104 
H    -5.3094093   -1.1298144    0.4912266 
H    -3.0047504   -1.3838907    1.3391648 
H    -2.9775922   -0.4446343   -0.1707447 
H    -1.8111907   -4.6262541   -0.3554031 
H    -2.2652362   -3.9515003    1.2243089 
H    -4.1232078   -4.3223463   -1.2108294 
H    -4.1272397   -5.3050190    0.2689172 
H    -4.7922966   -3.3062639    1.6240434 
H    -5.9592929   -3.5668203    0.3124354 
C     2.9159756   -4.3172992   -1.2525765 
C     2.1261860   -3.1274089   -0.6771479 
C     0.6049179   -3.3408582   -0.8154923 
C     0.2370398   -3.6061708   -2.2877024 
C     1.0197118   -4.8052294   -2.8526546 
C     2.5359667   -4.6010452   -2.7135827 
H     2.7078427   -5.2157737   -0.6383929 
H     3.9991365   -4.1188157   -1.1622610 
H     2.4026985   -2.1978114   -1.2159937 
H     2.3925321   -2.9785436    0.3809802 
H    -0.8462119   -3.7766000   -2.4033962 
H     0.4850409   -2.7046314   -2.8764678 
H     0.7176317   -5.7227426   -2.3105619 
H     0.7427127   -4.9595829   -3.9112243 
H     2.8478811   -3.7450080   -3.3446924 
H     3.0810454   -5.4852161   -3.0887967 
C     4.7217092    2.9677731   -0.3967130 
C     3.6139413    1.9453072   -0.0814350 
C     2.4056232    2.6117589    0.6101188 
C     2.8399998    3.3920086    1.8697515 
C     3.9450282    4.4109165    1.5283619 
C     5.1525908    3.7314877    0.8650914 
H     4.3494327    3.6907205   -1.1459935 
H     5.5839902    2.4483866   -0.8523610 
H     4.0321827    1.1684539    0.5857618 
H     3.2825682    1.4307209   -1.0036742 
H     1.9778461    3.9228753    2.3099612 
H     3.2138955    2.6839022    2.6338510 
H     3.5299286    5.1749961    0.8418765 
H     4.2523583    4.9406751    2.4479809 
H     5.6162944    3.0260459    1.5828548 
H     5.9246768    4.4804865    0.6138261 
C    -1.5090754    3.6524433    3.5299299 
C    -0.4298771    2.6150476    3.1626355 
C    -0.3583169    2.4249306    1.6326154 
C    -1.7428258    1.9988921    1.0942053 
C    -2.8214753    3.0346375    1.4521206 
C    -2.8869521    3.2647149    2.9706215 
H    -1.2105995    4.6393194    3.1246656 
H    -1.5543409    3.7632023    4.6281371 
H    -0.6786799    1.6454052    3.6334731 
H     0.5450109    2.9336696    3.5662395 
H    -1.6961415    1.8406682   -0.0001435 
H    -2.0203136    1.0207969    1.5265982 
H    -2.5874692    3.9912547    0.9433387 
H    -3.8017143    2.7008937    1.0661499 
H    -3.2312638    2.3335524    3.4629796 
H    -3.6326737    4.0430119    3.2110667 
