112
Energy =
C     1.6177183   -3.0131860    0.5318424 
C     2.1539590   -2.6556857   -0.7382341 
C     3.0626606   -1.5788709   -0.8762013 
H     1.7530941   -3.1455978   -1.6346698 
Pd    1.0607643   -0.9049933    0.0018881 
P     1.0758335    1.2126393   -1.0150086 
P    -0.8466506   -0.5598710    1.3445456 
H     2.2360618   -2.7984113    1.4167630 
H     3.6161777   -1.2810588    0.0268248 
C    -1.1926478   -6.2349254    1.0516478 
C    -1.3265291   -5.3601428   -0.0402698 
C    -0.4126672   -4.3168167   -0.2223883 
C     0.6501044   -4.1207864    0.6892187 
C     0.7788596   -5.0124316    1.7764759 
C    -0.1326907   -6.0617100    1.9539218 
H    -1.9116592   -7.0476746    1.1961995 
H    -2.1530486   -5.4880776   -0.7474448 
H    -0.5415378   -3.6202458   -1.0588201 
H     1.5979519   -4.8752597    2.4911704 
H    -0.0184177   -6.7420723    2.8040710 
C     5.0407988   -0.4008132   -4.5056252 
C     5.4551772    0.1074116   -3.2659263 
C     4.7800286   -0.2617206   -2.0962205 
C     3.6773534   -1.1461503   -2.1414215 
C     3.2510111   -1.6232856   -3.4033072 
C     3.9317274   -1.2613002   -4.5684728 
H     5.5744439   -0.1245058   -5.4208306 
H     6.3138844    0.7841495   -3.2069011 
H     5.1175348    0.1264266   -1.1291710 
H     2.3836186   -2.2860496   -3.4781125 
H     3.5921465   -1.6475318   -5.5345411 
Fe   -1.1511568    3.9568822   -0.1602653 
C    -0.4924393    2.1247955   -0.7858125 
C    -1.3716794    2.0018328    0.3708246 
C    -2.6368610    2.5893127    0.0100107 
C    -2.5550219    3.0725262   -1.3379376 
C    -1.2371189    2.8017968   -1.8280003 
C    -1.3894611    5.9419937   -0.5746909 
C    -1.9567233    5.6224018    0.7038344 
C    -0.9127510    5.0918126    1.5317128 
C     0.2993481    5.0740249    0.7651425 
C     0.0037849    5.6056063   -0.5373530 
C     1.1890892    1.0828685   -2.8479373 
C     2.2424901    1.6297288   -3.6039091 
C     2.2456169    1.5016268   -5.0009869 
C     1.2139289    0.8162636   -5.6550236 
C     0.1759665    0.2417096   -4.9038559 
C     0.1640908    0.3708273   -3.5104807 
C     2.4680281    2.2971536   -0.5091048 
C     3.3711558    1.8646157    0.4807942 
C     4.4283575    2.6922168    0.8864486 
C     4.5940884    3.9551412    0.2990197 
C     3.6969226    4.3932551   -0.6891208 
C     2.6352593    3.5714769   -1.0877369 
C    -1.0599275    1.2893747    1.6605924 
H    -3.5000116    2.6852159    0.6719167 
H    -3.3433204    3.5982013   -1.8797960 
H    -0.8547261    3.0425046   -2.8209231 
H    -1.9291288    6.3474778   -1.4324950 
H    -3.0039629    5.7399622    0.9886302 
H    -1.0314779    4.7566433    2.5632563 
H     1.2718358    4.7156330    1.1052202 
H     0.7088645    5.7425812   -1.3574976 
H     3.0731472    2.1421729   -3.1130055 
H    -0.6535926   -0.0675515   -2.9317602 
H     3.2331949    0.8803986    0.9430673 
H     1.9277709    3.9170847   -1.8467502 
H     3.0718279    1.9323237   -5.5753991 
H    -0.6301998   -0.3047387   -5.4045036 
H     5.1215800    2.3507065    1.6620467 
H     3.8217868    5.3808734   -1.1451593 
H     1.2216332    0.7203955   -6.7456818 
H     5.4199962    4.6015646    0.6132724 
H    -1.9332449    1.3906378    2.3269841 
C     0.2023111    1.8229516    2.3697207 
H    -0.0146140    2.7933923    2.8416668 
H     0.5715730    1.1350457    3.1488256 
H     1.0191443    1.9816708    1.6503624 
H     0.2145743   -1.4451969    3.3073222 
H    -2.3072641   -2.2820738    0.6622720 
C    -1.2583536   -3.4577695    4.4181739 
C    -1.4885470   -2.7530409    3.0706079 
C    -0.8638782   -1.3373676    3.0771353 
C    -1.5128516   -0.5060625    4.2110975 
C    -1.3056969   -1.2029028    5.5720586 
C    -1.8480091   -2.6406252    5.5777060 
H    -0.1701094   -3.5994240    4.5717218 
H    -1.7041062   -4.4678753    4.3825160 
H    -2.5778712   -2.6665925    2.8992250 
H    -1.0818339   -3.3620067    2.2513241 
H    -1.0942012    0.5116812    4.2655764 
H    -2.5964818   -0.3974495    4.0134805 
H    -0.2215254   -1.2176890    5.8006135 
H    -1.7864820   -0.6037222    6.3661414 
H    -2.9509822   -2.6138047    5.4767939 
H    -1.6315500   -3.1266538    6.5456966 
C    -3.5644993   -1.6582862   -1.6982230 
C    -2.3653499   -0.9666788   -1.0269335 
C    -2.3904388   -1.1893757    0.5004170 
C    -3.7215709   -0.7074999    1.1166204 
C    -4.9169737   -1.3961864    0.4306663 
C    -4.8941026   -1.1803894   -1.0914119 
H    -3.4718753   -2.7547966   -1.5647605 
H    -3.5435726   -1.4669602   -2.7864971 
H    -2.3910021    0.1153130   -1.2494355 
H    -1.4143811   -1.3599196   -1.4338265 
H    -3.7441994   -0.9033722    2.2027971 
H    -3.8079380    0.3857126    0.9843148 
H    -4.8812081   -2.4816782    0.6493294 
H    -5.8607320   -1.0171392    0.8621992 
H    -5.0242529   -0.1016787   -1.3086484 
H    -5.7431685   -1.7043322   -1.5652351 
