122
Energy =
C    -0.0468077   -0.3646991   -3.6097944 
C     0.2548900    0.9885605   -3.2915530 
C     1.4962267    1.3430317   -2.7074419 
H    -0.5332022    1.7456860   -3.3973758 
Pd    0.3122599   -0.0842129   -1.3860482 
P     1.0548758    0.7760634    0.6785754 
P    -0.8205958   -1.9913742   -0.5363094 
H     0.8033164   -1.0328614   -3.8156966 
H     2.3371628    0.6498677   -2.8623260 
C    -3.7512198   -1.4161927   -5.5178207 
C    -3.7548434   -0.5421958   -4.4185268 
C    -2.5560731   -0.2127841   -3.7798540 
C    -1.3300330   -0.7513957   -4.2276924 
C    -1.3398288   -1.6480903   -5.3192305 
C    -2.5408386   -1.9688072   -5.9646203 
H    -4.6901937   -1.6745780   -6.0179087 
H    -4.6992489   -0.1288934   -4.0494735 
H    -2.5624142    0.4362449   -2.8984961 
H    -0.3970853   -2.0803823   -5.6733686 
H    -2.5322381   -2.6534960   -6.8190686 
C     2.7032424    5.3671744   -1.7789621 
C     1.3444414    5.0162390   -1.7117310 
C     0.9408029    3.7099753   -2.0062567 
C     1.8869210    2.7224446   -2.3647109 
C     3.2501155    3.0874416   -2.4240399 
C     3.6512716    4.3994171   -2.1411557 
H     3.0228271    6.3848924   -1.5363587 
H     0.5987282    5.7667239   -1.4287871 
H    -0.1185283    3.4430654   -1.9524895 
H     4.0000582    2.3364949   -2.6931004 
H     4.7119192    4.6645498   -2.1883079 
Fe   -3.4872941    2.1197541    1.0706560 
C    -1.5616388    1.6749145    0.5509718 
C    -2.3211956    0.4534264    0.7836126 
C    -3.4517819    0.4760551   -0.1151799 
H    -4.2341136   -0.2789324   -0.1726685 
C    -3.3949162    1.6761587   -0.8979528 
H    -4.1321858    1.9940655   -1.6376933 
C    -2.2340087    2.4112544   -0.4918781 
H    -1.9314999    3.3903915   -0.8677865 
C    -4.7665557    3.7069078    1.1556302 
H    -4.9917416    4.3759655    0.3229350 
C    -3.7064494    3.8734256    2.1076392 
H    -3.0012414    4.7061736    2.1373077 
C    -3.7460722    2.7599067    3.0122981 
H    -3.0847639    2.6079471    3.8668018 
C    -4.8254487    1.9015620    2.6135411 
H    -5.1155809    0.9632727    3.0898356 
C    -5.4567898    2.4881619    1.4680254 
H    -6.2975125    2.0670946    0.9134952 
C    -1.9353895   -0.6560033    1.7081752 
C    -1.2451845   -1.8183855    1.2541335 
C    -0.8751066   -2.8160954    2.1784424 
H    -0.3039081   -3.6856244    1.8421829 
C    -1.1884928   -2.6908849    3.5373528 
H    -0.8751362   -3.4665614    4.2421798 
C    -1.8799307   -1.5601968    3.9904579 
H    -2.1178524   -1.4474783    5.0524821 
C    -2.2426597   -0.5607811    3.0804369 
H    -2.7802541    0.3268254    3.4187596 
C     1.4607805   -0.4121024    2.0428627 
C     2.1702093   -1.5679046    1.6685358 
H     2.3837162   -1.7725170    0.6172718 
C     2.5968382   -2.4894496    2.6341313 
C     2.3079075   -2.2865572    3.9882507 
H     2.6287859   -3.0148818    4.7379263 
C     1.5836637   -1.1461383    4.3598257 
C     1.1762577   -0.2066087    3.4041895 
H     0.6225570    0.6644764    3.7432043 
C     2.6705381    1.6781523    0.6252448 
C     2.8424794    3.0111384    1.0364366 
H     2.0040911    3.6150679    1.3875862 
C     4.1100015    3.6073395    0.9768298 
C     5.2205355    2.8925554    0.5077901 
H     6.2045498    3.3651300    0.4519051 
C     5.0429604    1.5733271    0.0741593 
C     3.7803177    0.9698069    0.1306472 
H     3.6712389   -0.0584358   -0.2277768 
C    -0.2268016    2.0790008    1.1516518 
H     0.1418306    2.9099854    0.5207025 
C    -0.2956965    2.5818034    2.6049220 
H    -0.8605481    3.5271153    2.6157810 
H    -0.8365947    1.8686364    3.2432287 
H     0.7013383    2.7706486    3.0370443 
C     4.2937248    5.0439835    1.4205094 
F     5.0881607    5.7230111    0.5568358 
F     3.1105097    5.7018677    1.4904182 
F     4.8723192    5.1157260    2.6388948 
C     6.1811587    0.8153234   -0.5726522 
F     6.0830018    0.8872817   -1.9318952 
F     7.3854119    1.3086828   -0.2292758 
F     6.1512205   -0.4982042   -0.2497736 
C     3.2849678   -3.7605485    2.1897542 
F     4.0590850   -4.2836368    3.1614765 
F     2.3667575   -4.7074908    1.8521345 
F     4.0618089   -3.5536380    1.0998244 
C     1.2101515   -0.9598783    5.8153108 
F     0.4074749    0.1166992    5.9978025 
F     0.5374687   -2.0460566    6.2794603 
F     2.2985343   -0.8024219    6.5960472 
C     2.0136859   -5.6205293   -1.2414392 
C     2.4387438   -4.3210182   -1.5484767 
C     1.5899151   -3.2338491   -1.2998828 
C     0.3133346   -3.4321280   -0.7364274 
C    -0.1166051   -4.7480077   -0.4572162 
C     0.7358798   -5.8315900   -0.6997189 
H     2.6753200   -6.4719321   -1.4303196 
H     3.4306675   -4.1511275   -1.9784571 
H     1.9081018   -2.2139913   -1.5585884 
H    -1.1253804   -4.9255955   -0.0695068 
H     0.3980358   -6.8476231   -0.4716364 
C    -4.6086536   -3.9175691   -2.4387981 
C    -3.3892989   -3.8796213   -3.1326222 
C    -2.2682087   -3.2786313   -2.5504028 
C    -2.3551904   -2.7039610   -1.2652834 
C    -3.5711217   -2.7762153   -0.5581802 
C    -4.6937803   -3.3755190   -1.1483359 
H    -5.4858757   -4.3870771   -2.8957131 
H    -3.3076941   -4.3191571   -4.1311041 
H    -1.3154975   -3.2776203   -3.0866658 
H    -3.6375308   -2.3948578    0.4650410 
H    -5.6327625   -3.4328968   -0.5877525 
