112
Energy =
C     2.6827869    1.9493003   -1.3715899 
C     1.8571883    1.7205011   -2.4888324 
C     0.5455147    2.2984250   -2.5530296 
H     2.1742425    1.0132707   -3.2663999 
Pd    0.6661402    0.9031216   -0.8335803 
P    -1.5877381    0.6509225   -0.2255874 
P     1.4091931   -0.7596679    0.6554318 
H     2.4121907    2.7988614   -0.7253893 
H     0.4103487    3.2769391   -2.0698965 
C     6.6898474    0.5607150   -0.6913010 
C     6.2049376    1.7060662   -0.0418999 
C     4.8927790    2.1374340   -0.2691222 
C     4.0477043    1.4480354   -1.1707976 
C     4.5611992    0.3124375   -1.8398188 
C     5.8620932   -0.1334778   -1.5915062 
H     7.7107125    0.2123452   -0.5038934 
H     6.8470472    2.2590685    0.6514001 
H     4.5094524    3.0172659    0.2589209 
H     3.9334762   -0.2388145   -2.5442352 
H     6.2337674   -1.0268356   -2.1033964 
C    -2.1785323    1.4722396   -5.7898856 
C    -1.3540769    0.4502213   -5.2886371 
C    -0.4619782    0.7150220   -4.2444470 
C    -0.3725835    2.0084415   -3.6746850 
C    -1.2016320    3.0263486   -4.1952712 
C    -2.0951508    2.7607474   -5.2419735 
H    -2.8792858    1.2640641   -6.6047743 
H    -1.4141528   -0.5587389   -5.7101816 
H     0.1519381   -0.0963490   -3.8363345 
H    -1.1392245    4.0358703   -3.7750062 
H    -2.7271680    3.5649832   -5.6328788 
Fe   -0.5271097   -3.7205253    1.2321961 
C     0.0986954   -1.7857710    1.4050627 
C    -1.3058542   -1.8435093    1.0119214 
C    -2.0023392   -2.5685575    2.0425932 
C    -1.0647748   -2.9708120    3.0480552 
C     0.2317765   -2.5080654    2.6555381 
C    -0.0790473   -4.6735794   -0.5293331 
C     0.8992102   -4.9841745    0.4741712 
C     0.2214105   -5.5915505    1.5803062 
C    -1.1771930   -5.6554783    1.2639403 
C    -1.3626362   -5.0903787   -0.0419884 
C     2.3269150   -0.0920223    2.1003820 
C     3.7086474    0.1780310    2.0072120 
C     4.3821263    0.7920780    3.0724016 
C     3.6890751    1.1529170    4.2365093 
C     2.3135107    0.8916050    4.3345052 
C     1.6357237    0.2742751    3.2756383 
C     2.5528272   -1.9425403   -0.1704201 
C     2.3753303   -2.1864035   -1.5464661 
C     3.1768417   -3.1229583   -2.2137541 
C     4.1816409   -3.8084632   -1.5143844 
C     4.3676449   -3.5673728   -0.1437000 
C     3.5505714   -2.6490718    0.5307884 
C    -1.9807788   -1.1856501   -0.1705891 
H    -3.0694273   -2.8017882    2.0312044 
H    -1.2900215   -3.5684957    3.9331958 
H     1.1626619   -2.6511303    3.2068038 
H     0.1295228   -4.2085370   -1.4926921 
H     1.9673553   -4.7789360    0.4081651 
H     0.6815641   -5.9177796    2.5149305 
H    -1.9651943   -6.0404826    1.9139221 
H    -2.3181872   -4.9905434   -0.5602154 
H     4.2661001   -0.0974599    1.1084947 
H     0.5662504    0.0643903    3.3724772 
H     1.6120286   -1.6243295   -2.0981651 
H     3.6911692   -2.4868704    1.6039719 
H     5.4557278    0.9875677    2.9839288 
H     1.7641363    1.1644015    5.2416358 
H     3.0265825   -3.3070809   -3.2826943 
H     5.1469379   -4.1042691    0.4070000 
H     4.2183209    1.6311968    5.0670271 
H     4.8176062   -4.5314704   -2.0353936 
H    -3.0699589   -1.2672309   -0.0069956 
C    -1.6326607   -1.8028766   -1.5391933 
H    -0.5394512   -1.8460490   -1.6674286 
H    -2.0280704   -2.8285100   -1.5976910 
H    -2.0526275   -1.2188710   -2.3760966 
H    -2.2679177    1.1625933   -2.3784910 
H    -0.9681269    0.5381845    2.0027764 
C    -4.0916262    3.3655451   -0.3823383 
C    -2.9991920    2.9001856   -1.3603120 
C    -2.8344171    1.3627628   -1.4514917 
C    -4.2113008    0.6733993   -1.6188653 
C    -5.2799012    1.1322256   -0.6183104 
C    -5.4344385    2.6621554   -0.6407668 
H    -4.2089762    4.4606198   -0.4687042 
H    -3.7771031    3.1727526    0.6585837 
H    -2.0297591    3.3802869   -1.1302028 
H    -3.2741967    3.2411018   -2.3756618 
H    -4.5507693    0.9373620   -2.6398218 
H    -4.1162723   -0.4259546   -1.6169162 
H    -6.2418217    0.6466234   -0.8616084 
H    -5.0105883    0.7956319    0.3998287 
H    -6.1822540    2.9857088    0.1049145 
H    -5.8231881    2.9695424   -1.6315922 
C    -2.8668973    1.3014333    3.8011339 
C    -3.0375884    0.9779948    2.3048650 
C    -1.7144038    1.2239231    1.5546997 
C    -1.1731463    2.6583973    1.7601893 
C    -1.0614679    2.9994317    3.2580587 
C    -2.3821334    2.7463351    4.0035267 
H    -2.1350321    0.5964342    4.2439428 
H    -3.8241481    1.1353853    4.3268437 
H    -3.8330958    1.6198151    1.8895443 
H    -3.3637072   -0.0688504    2.1762338 
H    -0.1840066    2.7516490    1.2714021 
H    -1.8415253    3.3890785    1.2712621 
H    -0.2617001    2.3827607    3.7095492 
H    -0.7469697    4.0523301    3.3724939 
H    -3.1564174    3.4440853    3.6273904 
H    -2.2595275    2.9634390    5.0796643 
