112
Energy =
C     2.6616907    1.3500604   -1.8108565 
C     1.6301233    1.2319048   -2.7642804 
C     0.4259766    1.9948746   -2.6945320 
H     1.6960920    0.4336247   -3.5151162 
Pd    0.6259537    0.7122834   -0.8671883 
P    -1.5783985    0.6675309   -0.0670713 
P     1.3364097   -0.6885658    0.8644861 
H     2.6533144    2.2413206   -1.1642449 
H     0.4870186    2.9967159   -2.2453563 
C     6.4369430   -0.7087950   -1.9760599 
C     6.0397774   -0.0423600   -0.8066028 
C     4.8128418    0.6259216   -0.7625209 
C     3.9444694    0.6291086   -1.8788158 
C     4.3623761   -0.0426326   -3.0520520 
C     5.5965226   -0.6988973   -3.1001892 
H     7.4008385   -1.2263919   -2.0141917 
H     6.6884937   -0.0447556    0.0749099 
H     4.5127947    1.1382683    0.1566717 
H     3.7323577   -0.0280148   -3.9471020 
H     5.9084120   -1.1993422   -4.0227810 
C    -2.7037540    1.4757027   -5.6151379 
C    -2.0114790    0.3562626   -5.1224444 
C    -0.9949817    0.5191308   -4.1755742 
C    -0.6482768    1.8039634   -3.6947263 
C    -1.3416574    2.9199761   -4.2112820 
C    -2.3590891    2.7574987   -5.1617427 
H    -3.5022419    1.3484308   -6.3531756 
H    -2.2717552   -0.6478483   -5.4735680 
H    -0.4805030   -0.3615397   -3.7754940 
H    -1.0724997    3.9248699   -3.8680684 
H    -2.8829519    3.6365903   -5.5513317 
Fe   -0.3804742   -3.7955571    0.8739363 
C     0.0840259   -1.8842404    1.4235399 
C    -1.3169120   -1.9590844    1.0243652 
C    -1.9442035   -2.9364657    1.8739182 
C    -0.9745770   -3.4623575    2.7865753 
C     0.2820025   -2.8370650    2.5019327 
C    -0.9445673   -5.7097443    0.4192113 
C    -0.9470615   -4.9078118   -0.7680890 
C     0.3716045   -4.3740210   -0.9466185 
C     1.1962653   -4.8578601    0.1266180 
C     0.3816768   -5.6844348    0.9671406 
C     1.8348306    0.2878241    2.3544267 
C     2.4764009    1.5236739    2.1227164 
C     2.9160557    2.3174978    3.1893833 
C     2.7117528    1.8913865    4.5105679 
C     2.0617485    0.6730329    4.7535799 
C     1.6242410   -0.1246154    3.6853357 
C     2.8053813   -1.7304939    0.5065916 
C     2.9954374   -2.1793252   -0.8144801 
C     4.0564775   -3.0387565   -1.1213292 
C     4.9414986   -3.4479669   -0.1113491 
C     4.7685903   -2.9867873    1.2024525 
C     3.7082308   -2.1228031    1.5131422 
C    -2.0901402   -1.1398204    0.0025749 
H    -2.9936973   -3.2332447    1.8142216 
H    -1.1485651   -4.2410667    3.5314496 
H     1.2341315   -3.0594690    2.9874529 
H    -1.8047942   -6.2310959    0.8431642 
H    -1.8052272   -4.7426770   -1.4200755 
H     0.6965616   -3.7239245   -1.7593097 
H     2.2490301   -4.6234113    0.2871575 
H     0.7046886   -6.1784165    1.8855812 
H     2.6103038    1.8754674    1.0950697 
H     1.1016280   -1.0599403    3.8983323 
H     2.3096111   -1.8444949   -1.6007699 
H     3.5887713   -1.7520922    2.5366767 
H     3.4093174    3.2738857    2.9878142 
H     1.8854288    0.3401798    5.7815710 
H     4.2004988   -3.3798535   -2.1507888 
H     5.4654188   -3.2949189    1.9889182 
H     3.0483081    2.5119351    5.3472459 
H     5.7738017   -4.1172594   -0.3518427 
H    -3.1445460   -1.1421500    0.3314034 
C    -2.0192791   -1.7188049   -1.4255400 
H    -2.5579935   -1.0944292   -2.1575897 
H    -0.9679550   -1.8083827   -1.7464559 
H    -2.4687897   -2.7225716   -1.4318516 
H    -2.6387190    1.0661307   -2.1724746 
H    -2.9574768    1.8288776    1.4988277 
C    -3.8381422    3.7150613   -0.3746606 
C    -2.7735463    3.0024105   -1.2236063 
C    -2.8871441    1.4472497   -1.1669869 
C    -4.3320290    1.0026545   -0.8210445 
C    -5.3435729    1.9555365   -1.4829249 
C    -5.2631757    3.3796715   -0.8794109 
H    -3.6674012    4.8052652   -0.4032377 
H    -3.7352403    3.4240640    0.6863432 
H    -1.7541381    3.3331981   -0.9566207 
H    -2.9152920    3.3035945   -2.2748305 
H    -4.5014170   -0.0323924   -1.1646801 
H    -4.4970579    1.0031083    0.2749540 
H    -5.1282571    1.9877899   -2.5678036 
H    -6.3659026    1.5519538   -1.3813890 
H    -5.9789750    3.4771747   -0.0437483 
H    -5.5747333    4.1153582   -1.6421883 
C    -1.3658784    3.4398231    3.1104577 
C    -0.9926368    2.6770968    1.8279026 
C    -1.9205197    1.4586273    1.6086224 
C    -1.9096122    0.5243892    2.8353531 
C    -2.2834688    1.3033165    4.1110571 
C    -1.3591491    2.5108715    4.3336362 
H    -2.3729771    3.8858086    2.9884704 
H    -0.6635240    4.2801657    3.2563705 
H     0.0488945    2.3168540    1.9028802 
H    -1.0304411    3.3568042    0.9592655 
H    -2.6123430   -0.3131388    2.6905189 
H    -0.9080361    0.0812660    2.9619776 
H    -3.3321174    1.6524165    4.0302709 
H    -2.2451132    0.6193916    4.9782091 
H    -0.3266072    2.1522509    4.5086191 
H    -1.6640050    3.0649849    5.2393318 
