112
Energy =
C     0.2542134    1.4720392   -2.9843291 
C     0.7835211    2.5116290   -2.1522056 
C     2.0163456    2.3630525   -1.4836126 
H     0.1491194    3.3752456   -1.9155742 
Pd    0.5155950    0.7286223   -0.8943695 
P     0.7978436    0.7888945    1.4214016 
P    -0.5720136   -1.3401157   -0.9616178 
H     0.9784001    0.8660110   -3.5473737 
H     2.6854137    1.5623532   -1.8372807 
C    -3.6779516    1.7776032   -4.7366285 
C    -3.4316267    2.3140798   -3.4620553 
C    -2.1614786    2.2078130   -2.8850811 
C    -1.1000481    1.5754393   -3.5747739 
C    -1.3602682    1.0559879   -4.8629280 
C    -2.6355445    1.1496634   -5.4346153 
H    -4.6739556    1.8548962   -5.1843065 
H    -4.2364159    2.8136349   -2.9127170 
H    -1.9920481    2.6062942   -1.8781653 
H    -0.5479862    0.5868826   -5.4291534 
H    -2.8126005    0.7411724   -6.4350475 
C     4.0369603    5.2509159    0.9782676 
C     4.5554839    3.9556657    0.8168858 
C     3.8834738    3.0282526    0.0140603 
C     2.6666213    3.3650798   -0.6258780 
C     2.1532260    4.6702766   -0.4464893 
C     2.8385600    5.6041771    0.3374727 
H     4.5694933    5.9848121    1.5919755 
H     5.4919695    3.6713430    1.3075885 
H     4.3005756    2.0251485   -0.1196738 
H     1.2200287    4.9672077   -0.9342491 
H     2.4324164    6.6141936    0.4525116 
Fe   -0.1405816   -1.7613892    3.7424981 
C    -0.3348680   -0.3352194    2.3064814 
C    -0.7404378   -1.6413826    1.8091041 
C    -1.8174502   -2.1059798    2.6443265 
C    -2.0704585   -1.1175688    3.6533502 
C    -1.1554194   -0.0319462    3.4608099 
C     1.0623535   -3.4101453    3.9693897 
C     1.8298023   -2.2073205    4.0969430 
C     1.2749826   -1.4401964    5.1783151 
C     0.1641547   -2.1726001    5.7163280 
C     0.0290754   -3.3884458    4.9654835 
C     0.2644735    2.4505355    1.9856215 
C     1.1606288    3.4527684    2.4032723 
C     0.6769219    4.7177244    2.7727717 
C    -0.6916162    5.0047786    2.7024214 
C    -1.5871749    4.0204717    2.2504718 
C    -1.1153976    2.7530965    1.8932892 
C     2.4955953    0.4798653    2.0324291 
C     3.3649384   -0.2509470    1.1978659 
C     4.6572418   -0.5779539    1.6339472 
C     5.0941450   -0.1606764    2.9005765 
C     4.2325660    0.5704147    3.7351877 
C     2.9344724    0.8818792    3.3100609 
C    -0.1551909   -2.3300396    0.6057990 
H    -2.3320435   -3.0633350    2.5506678 
H    -2.8045692   -1.1984397    4.4570319 
H    -1.0897268    0.8736191    4.0654136 
H     1.2361697   -4.2040622    3.2410632 
H     2.6812373   -1.9233895    3.4772963 
H     1.6312056   -0.4718009    5.5303496 
H    -0.4821964   -1.8497740    6.5345453 
H    -0.7370302   -4.1519846    5.1131472 
H     2.2373093    3.2628243    2.4297702 
H    -1.8202787    1.9869838    1.5547411 
H     3.0227019   -0.5578189    0.2013507 
H     2.2599766    1.4301351    3.9749445 
H     0.9422994   -2.2006147    0.6589391 
C    -0.4571705   -3.8378692    0.5577790 
H    -0.2162297   -4.2769684    1.5401028 
H    -1.5152152   -4.0503700    0.3437388 
H     0.1567472   -4.3502741   -0.1996268 
H     1.3855413    5.4831144    3.1044179 
H    -2.6580921    4.2388881    2.1830533 
H     5.3251869   -1.1510758    0.9825812 
H     4.5708497    0.8897379    4.7263311 
H    -1.0624230    5.9934805    2.9916862 
H     6.1050591   -0.4079549    3.2404413 
H    -0.3844209   -3.4840844   -2.0729856 
C     2.1190813   -3.5171992   -3.3554068 
C     1.5751361   -2.5681808   -2.2722453 
C     0.0305035   -2.4864034   -2.3132860 
C    -0.4610680   -2.0899174   -3.7177169 
C     0.0850699   -3.0489788   -4.7907704 
C     1.6199092   -3.1191789   -4.7533876 
H     1.7897748   -4.5500720   -3.1278333 
H     3.2234646   -3.5236387   -3.3225187 
H     1.9829533   -1.5482234   -2.4294109 
H     1.9238736   -2.8962858   -1.2756259 
H    -1.5639529   -2.0674649   -3.7578304 
H    -0.1179160   -1.0659032   -3.9360036 
H    -0.3346468   -4.0605319   -4.6243789 
H    -0.2647606   -2.7228446   -5.7867431 
H     2.0372872   -2.1276341   -5.0210436 
H     1.9917335   -3.8322272   -5.5103048 
H    -2.4703172   -0.7314636   -2.1977012 
C    -4.4870408    0.1568192   -0.5396892 
C    -3.0068450   -0.1082611   -0.2134576 
C    -2.4146421   -1.1635734   -1.1762683 
C    -3.2379523   -2.4682326   -1.1482251 
C    -4.7127117   -2.1823735   -1.4889219 
C    -5.3112804   -1.1409892   -0.5290875 
H    -4.5544257    0.6228084   -1.5408059 
H    -4.9002969    0.8848520    0.1820000 
H    -2.9139210   -0.4596150    0.8298408 
H    -2.4206255    0.8252804   -0.2940983 
H    -2.8198883   -3.2151607   -1.8471481 
H    -3.1853951   -2.9040504   -0.1332949 
H    -4.7777108   -1.8073325   -2.5292140 
H    -5.2911270   -3.1229477   -1.4524809 
H    -5.3261474   -1.5584076    0.4973315 
H    -6.3610826   -0.9296295   -0.7998355 
