132
Energy =
C     0.7173764   -0.4373465   -3.6114603 
C     0.7003759    0.9686664   -3.3429195 
C     1.6408859    1.5471261   -2.4599442 
H    -0.1412816    1.5720107   -3.7069715 
Pd    0.4072015   -0.0934837   -1.4415451 
P     0.1963181    0.9040640    0.6546340 
P    -0.3735076   -2.2079350   -0.8051677 
H     1.6989395   -0.9347187   -3.6033207 
H     2.5597947    0.9719853   -2.2666728 
C    -2.3315567   -2.5626222   -5.7999555 
C    -2.6635263   -1.3956278   -5.0901465 
C    -1.6791758   -0.6893281   -4.3913076 
C    -0.3336864   -1.1276812   -4.3890175 
C    -0.0132430   -2.2933791   -5.1221735 
C    -1.0010520   -3.0055246   -5.8160889 
H    -3.1050241   -3.1178537   -6.3401423 
H    -3.6990939   -1.0397330   -5.0753993 
H    -1.9620132    0.1992501   -3.8159755 
H     1.0266129   -2.6382951   -5.1529879 
H    -0.7279758   -3.9058330   -6.3765430 
C     1.9119275    5.6277561   -1.1365019 
C     2.9127414    4.6982412   -0.8179061 
C     2.8080743    3.3745746   -1.2603095 
C     1.7072034    2.9551286   -2.0428927 
C     0.7196339    3.9115113   -2.3768398 
C     0.8163737    5.2285316   -1.9207145 
H     1.9874486    6.6621413   -0.7855259 
H     3.7764052    5.0019913   -0.2178523 
H     3.5826555    2.6480770   -0.9916737 
H    -0.1353108    3.6259180   -2.9964286 
H     0.0331802    5.9494093   -2.1769480 
Fe   -0.4216447   -0.8239166    3.7105828 
C    -0.7470500   -0.1144123    1.8462473 
C    -0.7999540   -1.5711759    1.8626293 
C    -1.8400944   -1.9512910    2.7854609 
C    -2.4259245   -0.7639637    3.3329594 
C    -1.7611502    0.3671039    2.7617126 
C     0.5126207   -2.0816695    5.0128475 
C     1.4770768   -1.3457058    4.2430362 
C     1.2611551    0.0543506    4.4834025 
C     0.1604593    0.1835005    5.3933145 
C    -0.3038520   -1.1354833    5.7211146 
C    -0.7829503    2.4467766    0.5747586 
C    -1.5464738    2.6618340   -0.5868081 
C    -2.3548243    3.7980327   -0.7366606 
C    -2.3816224    4.7368182    0.3185106 
C    -1.6326028    4.5495770    1.5050586 
C    -0.8497829    3.3889659    1.6215611 
C     1.8545650    1.2507650    1.3553442 
C     2.2937564    2.5100039    1.8000028 
C     3.5835943    2.6812264    2.3344649 
C     4.4369522    1.5577483    2.4121972 
C     4.0450762    0.2908875    1.9159670 
C     2.7541122    0.1660123    1.3829581 
C     0.0268325   -2.5122626    1.0206344 
H    -2.1123879   -2.9724206    3.0557680 
H    -3.2180224   -0.7289072    4.0829143 
H    -1.9846262    1.4134527    2.9690102 
H     0.4078046   -3.1677749    5.0490595 
H     2.2392268   -1.7719278    3.5881172 
H     1.8224812    0.8735452    4.0317817 
H    -0.2645716    1.1207767    5.7569819 
H    -1.1421845   -1.3767870    6.3771658 
H    -1.4893361    1.9313058   -1.4032534 
H    -0.2883101    3.2284253    2.5478636 
H     1.6483310    3.3861956    1.7078139 
H     2.4489892   -0.8037640    0.9718600 
H     1.0772948   -2.1738843    1.0653798 
H     0.3906176   -3.0825350   -2.8306688 
H    -2.2175515   -2.5977721   -2.2219119 
C    -4.3994626   -1.1227424   -1.3639830 
C    -2.9331397   -1.0374620   -0.9096895 
C    -2.2038476   -2.3850246   -1.1319707 
C    -2.9431571   -3.5210326   -0.3900467 
C    -4.4094382   -3.6053217   -0.8564588 
C    -5.1413217   -2.2683589   -0.6564214 
H    -4.4266546   -1.2885688   -2.4590550 
H    -4.9026372   -0.1572176   -1.1738118 
H    -2.8884772   -0.7685843    0.1624017 
H    -2.4039038   -0.2372334   -1.4578052 
H    -2.4416324   -4.4908380   -0.5412295 
H    -2.9227315   -3.3067203    0.6939239 
H    -4.4321207   -3.8825916   -1.9289477 
H    -4.9246558   -4.4148607   -0.3087945 
H    -5.2028392   -2.0465038    0.4274297 
H    -6.1800749   -2.3405427   -1.0253446 
C     0.7694506   -5.7751559   -2.8828483 
C    -0.0403544   -4.9379756   -1.8721053 
C     0.5188506   -3.5002378   -1.8145007 
C     2.0316896   -3.4733197   -1.4945919 
C     2.8201088   -4.3288695   -2.5022614 
C     2.2728005   -5.7646556   -2.5614361 
H     0.6081039   -5.3623392   -3.8983922 
H     0.3837648   -6.8101682   -2.8976599 
H     0.0026346   -5.4169025   -0.8777842 
H    -1.1001346   -4.9186360   -2.1790545 
H     2.3978449   -2.4276664   -1.5018593 
H     2.2078572   -3.8646712   -0.4736658 
H     2.7447211   -3.8648789   -3.5058009 
H     3.8920571   -4.3308463   -2.2346789 
H     2.4414746   -6.2585478   -1.5837491 
H     2.8286922   -6.3547296   -3.3116088 
C    -0.0155432   -3.9642797    1.5244513 
H    -1.0090669   -4.4230780    1.4104266 
H     0.7157067   -4.5934493    0.9949615 
H     0.2441483   -3.9701001    2.5973695 
C    -3.1369952    4.0512976   -2.0032242 
H    -2.7944303    3.3935689   -2.8194183 
H    -4.2168367    3.8636974   -1.8567082 
H    -3.0337014    5.1030830   -2.3189448 
C    -1.6691443    5.5885604    2.6014488 
H    -1.7239236    6.6014728    2.1697830 
H    -2.5573666    5.4603750    3.2484110 
H    -0.7773092    5.5183328    3.2454238 
O    -3.0921102    5.9039063    0.1464877 
C    -4.4426579    5.9016088    0.6312191 
H    -4.8561413    6.8941659    0.3988922 
H    -5.0480672    5.1232894    0.1291156 
H    -4.4789435    5.7352085    1.7243069 
C     4.0723606    4.0340220    2.7952791 
H     4.1333426    4.0851287    3.8980571 
H     5.0875483    4.2312667    2.4113479 
H     3.3948348    4.8348680    2.4581847 
C     5.0011945   -0.8777710    1.9523670 
H     4.9748652   -1.3847116    2.9357221 
H     4.7409124   -1.6272468    1.1863685 
H     6.0368808   -0.5379269    1.7887062 
O     5.7151916    1.7309271    2.8930659 
C     5.9015042    1.4440810    4.2870244 
H     6.9608621    1.6442998    4.5054856 
H     5.2649821    2.0935930    4.9175038 
H     5.6717053    0.3863425    4.5162064 
