132
Energy =
C     1.1933978   -0.5402602   -3.4407812 
C     1.0549150    0.8448889   -3.1576716 
C     1.8339734    1.4725472   -2.1550497 
H     0.2477893    1.4057734   -3.6451047 
Pd    0.5497436   -0.2023432   -1.2901884 
P     0.3025838    0.8342777    0.8001824 
P    -0.4744900   -2.2049810   -0.5997137 
H     2.1682452   -0.9974607   -3.2147993 
H     2.7741034    0.9756315   -1.8743082 
C    -1.0537259   -2.5820074   -6.4941079 
C    -1.6605108   -1.5557708   -5.7491456 
C    -0.9389107   -0.8815472   -4.7593455 
C     0.4054804   -1.2236029   -4.4854893 
C     1.0061962   -2.2484624   -5.2494057 
C     0.2847874   -2.9192331   -6.2459759 
H    -1.6217783   -3.1119497   -7.2653770 
H    -2.7055140   -1.2875007   -5.9371035 
H    -1.4318529   -0.1052505   -4.1650333 
H     2.0503219   -2.5194431   -5.0570250 
H     0.7685639   -3.7108396   -6.8274523 
C     1.8512626    5.6832647   -1.2789460 
C     2.8575208    4.8424847   -0.7795421 
C     2.8236677    3.4699455   -1.0520777 
C     1.7786922    2.9059549   -1.8207557 
C     0.7532822    3.7618705   -2.2864870 
C     0.7985925    5.1349963   -2.0297942 
H     1.8828919    6.7594197   -1.0807807 
H     3.6796394    5.2574357   -0.1873902 
H     3.6209057    2.8224971   -0.6730550 
H    -0.0873330    3.3545072   -2.8566707 
H     0.0025080    5.7824736   -2.4115788 
Fe   -0.0424577   -0.9000053    3.9095540 
C    -0.5379157   -0.1665184    2.0773423 
C    -0.5923764   -1.6206847    2.1052009 
C    -1.5574191   -1.9922323    3.1102866 
C    -2.0683539   -0.7975159    3.7186756 
C    -1.4388237    0.3281826    3.0961737 
C     1.6037476   -1.9554200    4.5220895 
C     1.9430259   -0.5789304    4.3124702 
C     1.1108162    0.2208217    5.1677866 
C     0.2588297   -0.6660570    5.9098062 
C     0.5615366   -2.0116008    5.5085351 
C    -0.8068431    2.2878746    0.6689375 
C    -0.3708677    3.6215451    0.7715556 
C    -1.2857097    4.6860089    0.6922501 
C    -2.6454049    4.3911168    0.4525747 
C    -3.1121875    3.0603707    0.3289570 
C    -2.1738222    2.0237386    0.4398067 
C     1.8897966    1.3660028    1.5344127 
C     3.0702487    0.7393309    1.0961066 
C     4.3143220    1.0311756    1.6814858 
C     4.3458657    1.9768725    2.7333364 
C     3.1743999    2.6292568    3.1898670 
C     1.9512883    2.3001143    2.5852627 
C     0.1533372   -2.5443168    1.1773897 
H    -1.8237760   -3.0101358    3.3984402 
H    -2.7843948   -0.7564511    4.5414864 
H    -1.6168895    1.3800644    3.3246619 
H     2.0572340   -2.8089720    4.0148864 
H     2.6916698   -0.2049221    3.6138696 
H     1.1196585    1.3092487    5.2372407 
H    -0.5023294   -0.3700402    6.6339969 
H     0.0702337   -2.9151275    5.8745885 
H     0.6890852    3.8501990    0.9152116 
H    -2.5244514    0.9876889    0.3785901 
H     3.0200646    0.0055080    0.2817834 
H     1.0359405    2.7758398    2.9519919 
H     1.2051943   -2.2081985    1.1321109 
H    -0.5040329   -4.5980832   -0.7534610 
H    -2.3804266   -1.2375935    0.4095073 
C    -4.6072149   -2.8712799    0.1979872 
C    -3.1184597   -3.2159613    0.0041543 
C    -2.3214304   -1.9649342   -0.4243452 
C    -2.9240638   -1.2793354   -1.6729913 
C    -4.4177555   -0.9727161   -1.4670791 
C    -5.2052198   -2.2299375   -1.0642678 
H    -4.7049549   -2.1690798    1.0495785 
H    -5.1658582   -3.7839095    0.4728771 
H    -3.0244223   -4.0074098   -0.7622928 
H    -2.7050405   -3.6242193    0.9417681 
H    -2.3637584   -0.3476666   -1.8799590 
H    -2.7990806   -1.9239868   -2.5613758 
H    -4.5241255   -0.2090394   -0.6723350 
H    -4.8362113   -0.5280813   -2.3882041 
H    -5.1770667   -2.9622892   -1.8954003 
H    -6.2684513   -1.9795038   -0.9000839 
C     1.6505353   -5.4090158   -2.2837478 
C     1.3485776   -4.0117977   -1.7133562 
C    -0.1676228   -3.8293857   -1.4756462 
C    -0.9573756   -4.0511463   -2.7827086 
C    -0.6485127   -5.4442985   -3.3648678 
C     0.8581577   -5.6652271   -3.5756694 
H     1.3835976   -6.1727363   -1.5265192 
H     2.7354822   -5.5116003   -2.4667107 
H     1.6849140   -3.2356995   -2.4259067 
H     1.9175715   -3.8490238   -0.7788915 
H    -2.0413418   -3.9660159   -2.5997465 
H    -0.6935860   -3.2732564   -3.5159180 
H    -1.0392635   -6.2192605   -2.6756025 
H    -1.1908611   -5.5657950   -4.3196725 
H     1.2167508   -4.9750398   -4.3619814 
H     1.0457842   -6.6902913   -3.9422523 
C     0.1314042   -4.0063958    1.6531263 
H     0.4597610   -4.0399948    2.7060176 
H    -0.8755847   -4.4511656    1.6023074 
H     0.8158962   -4.6380841    1.0660392 
C    -0.8562284    6.1199899    0.8912339 
H    -1.4793634    6.6035105    1.6632082 
H     0.2020812    6.1782323    1.1897141 
H    -0.9804758    6.7126768   -0.0328383 
C    -4.5824925    2.7743873    0.1274532 
H    -5.1946380    3.5910973    0.5422456 
H    -4.8321603    2.6770652   -0.9459586 
H    -4.8705576    1.8302595    0.6186567 
O    -3.5408726    5.4386493    0.4190322 
C    -3.8862363    5.9177014   -0.8870437 
H    -4.5620125    6.7727254   -0.7364030 
H    -2.9873172    6.2513041   -1.4409980 
H    -4.4043061    5.1407571   -1.4810732 
C     5.5898263    0.3778322    1.2041940 
H     6.4247556    1.0972340    1.2277144 
H     5.8734821   -0.4713243    1.8538292 
H     5.4770196   -0.0128540    0.1794899 
C     3.2563799    3.6429408    4.3062869 
H     2.3713423    4.2995015    4.3120464 
H     3.3098129    3.1444673    5.2925718 
H     4.1652412    4.2586617    4.2058425 
O     5.5573361    2.3218544    3.2870985 
C     5.9749430    1.5359273    4.4140539 
H     6.9398034    1.9511650    4.7402307 
H     5.2447142    1.6022460    5.2423571 
H     6.1059911    0.4731009    4.1359371 
