112
Energy =
C     2.3640670    2.3967363    0.2284588 
C     1.2772183    3.0463314    0.8859924 
C     0.7356030    2.5227546    2.0813679 
H     0.7770377    3.8841024    0.3834705 
Pd    0.6082960    1.0122265    0.3519229 
P    -1.4148459   -0.1306955    0.7118077 
P     1.5801280   -0.6148648   -1.0145957 
H     3.0757931    1.8394501    0.8552408 
H     1.3621777    1.8034880    2.6317255 
C     3.9265695    3.6919724   -3.5700804 
C     2.5484307    3.7840696   -3.3130562 
C     2.0334867    3.3691704   -2.0816128 
C     2.8836387    2.8488953   -1.0782656 
C     4.2681629    2.7713347   -1.3469649 
C     4.7842174    3.1898417   -2.5804690 
H     4.3283527    4.0136352   -4.5363489 
H     1.8721446    4.1709062   -4.0823991 
H     0.9533738    3.4195242   -1.9018556 
H     4.9419325    2.3869949   -0.5747485 
H     5.8614569    3.1266899   -2.7677176 
C    -2.4403895    4.1386664    4.4857565 
C    -1.7344258    2.9968989    4.8962887 
C    -0.6950887    2.4945835    4.1057578 
C    -0.3488143    3.1110614    2.8798248 
C    -1.0578577    4.2709635    2.4878334 
C    -2.0899025    4.7778660    3.2845611 
H    -3.2515176    4.5368109    5.1036514 
H    -1.9911621    2.5013250    5.8382452 
H    -0.1403944    1.6075023    4.4324410 
H    -0.8052773    4.7813237    1.5531909 
H    -2.6274929    5.6770908    2.9669056 
Fe    0.1483594   -3.7762373   -1.8890479 
C     0.8496932   -2.2621155   -0.7248762 
C    -0.5690376   -2.4886163   -0.4947830 
C    -0.7219419   -3.8513240   -0.0539618 
C     0.5732351   -4.4684204   -0.0224940 
C     1.5434487   -3.5023089   -0.4454587 
C    -1.2008328   -3.9279785   -3.4313528 
C    -0.0326096   -3.2155561   -3.8546130 
C     1.1022847   -4.0782847   -3.6701295 
C     0.6308600   -5.3215303   -3.1306691 
C    -0.7930085   -5.2270925   -2.9779232 
C     3.3249607   -0.8216949   -0.4861278 
C     4.4238355   -0.3867269   -1.2520317 
C     5.7265169   -0.4949555   -0.7382447 
C     5.9440496   -1.0175837    0.5428177 
C     4.8495992   -1.4317261    1.3213905 
C     3.5495003   -1.3320755    0.8145753 
C     1.5490438   -0.2834366   -2.8129580 
C     2.4033188   -0.9418457   -3.7214804 
C     2.2951957   -0.6878397   -5.0943813 
C     1.3234824    0.2066373   -5.5731613 
C     0.4623926    0.8536876   -4.6749900 
C     0.5814805    0.6175195   -3.2979751 
C    -1.6457549   -1.4465230   -0.6406151 
H    -1.6658651   -4.3477390    0.1760871 
H     0.7790730   -5.5089962    0.2348715 
H     2.6185924   -3.6625664   -0.5362395 
H    -2.2231037   -3.5471754   -3.4523624 
H    -0.0111528   -2.1965178   -4.2427699 
H     2.1408128   -3.8369342   -3.8980364 
H     1.2492721   -6.1788913   -2.8585543 
H    -1.4473213   -5.9996607   -2.5696806 
H     4.2725528    0.0513149   -2.2413204 
H     2.7012635   -1.6561245    1.4272435 
H     3.1416588   -1.6625641   -3.3578067 
H    -0.0735200    1.1355255   -2.5874835 
H    -1.4220464   -0.8666148   -1.5561168 
C    -3.0561616   -2.0442355   -0.7871033 
H    -3.0210410   -2.8425824   -1.5462156 
H    -3.4307318   -2.4850871    0.1487621 
H    -3.7824037   -1.2895917   -1.1275171 
H     6.5725779   -0.1592942   -1.3470532 
H     5.0104599   -1.8349388    2.3265863 
H     2.9629039   -1.1989496   -5.7955542 
H    -0.2951524    1.5523244   -5.0448295 
H     6.9615998   -1.0996810    0.9382699 
H     1.2382101    0.3964845   -6.6480241 
H    -3.7736270    0.2022019    0.2457615 
C    -4.0124251    2.7731771   -0.8557020 
C    -2.7603431    1.9098591   -0.6233319 
C    -2.9699790    0.9046811    0.5342312 
C    -3.4155565    1.6170970    1.8265499 
C    -4.6606735    2.4878311    1.5770821 
C    -4.4369535    3.4912165    0.4348310 
H    -4.8396819    2.1255205   -1.2071677 
H    -3.8173130    3.5023627   -1.6628455 
H    -1.8985902    2.5607425   -0.3692798 
H    -2.4881485    1.3745296   -1.5531062 
H    -3.6347234    0.8798511    2.6180053 
H    -2.5969114    2.2529170    2.1971222 
H    -5.5216554    1.8359100    1.3288224 
H    -4.9214172    3.0177895    2.5108376 
H    -3.6445851    4.2062932    0.7305330 
H    -5.3523480    4.0841187    0.2602290 
H    -1.6088424   -0.0204881    3.0439619 
C    -0.0662549   -1.9478444    4.2639733 
C    -0.0744356   -1.5055902    2.7897675 
C    -1.4505888   -0.9130666    2.4040460 
C    -2.5866366   -1.9175304    2.6876365 
C    -2.5707719   -2.3463319    4.1671179 
C    -1.2066930   -2.9352982    4.5627219 
H    -0.1775448   -1.0544934    4.9108254 
H     0.9115814   -2.3984893    4.5126110 
H     0.1531152   -2.3705381    2.1398356 
H     0.7157674   -0.7518459    2.6077375 
H    -3.5690369   -1.4861072    2.4232864 
H    -2.4400861   -2.8112324    2.0538084 
H    -2.7917469   -1.4650719    4.8013218 
H    -3.3771785   -3.0787418    4.3509213 
H    -1.0354386   -3.8699219    3.9927983 
H    -1.2037446   -3.2116398    5.6320671 
