112
Energy =
C     0.3017265    0.4944984   -3.0572605 
C    -0.7529479    1.4030706   -2.8008508 
C    -0.5453220    2.5653442   -2.0051196 
H    -1.7714250    1.1465998   -3.1175101 
Pd   -0.0946966    0.6945193   -0.8149533 
P     0.2809597    1.7024858    1.2707003 
P     0.4296687   -1.3981716    0.0783840 
H     1.3241242    0.8664498   -2.8888052 
H     0.4693714    2.9876635   -1.9977754 
C     0.2714186   -2.8463242   -5.7692295 
C     1.4388609   -2.4929682   -5.0753901 
C     1.4221488   -1.4185382   -4.1784713 
C     0.2389167   -0.6769754   -3.9476141 
C    -0.9326570   -1.0557493   -4.6449388 
C    -0.9129448   -2.1232178   -5.5483985 
H     0.2830076   -3.6780546   -6.4807713 
H     2.3675185   -3.0481437   -5.2429923 
H     2.3414173   -1.1342025   -3.6533083 
H    -1.8635532   -0.4979960   -4.5014481 
H    -1.8265139   -2.3917262   -6.0884894 
C    -3.5820240    5.4357213   -0.9757450 
C    -3.9570754    4.1364730   -1.3540054 
C    -2.9825980    3.1889829   -1.6844254 
C    -1.6069199    3.5181157   -1.6389739 
C    -1.2466722    4.8283971   -1.2494383 
C    -2.2223514    5.7774116   -0.9273378 
H    -4.3464038    6.1773387   -0.7220631 
H    -5.0158559    3.8603837   -1.3956910 
H    -3.2987932    2.1830263   -1.9787276 
H    -0.1872001    5.1028328   -1.2094222 
H    -1.9196197    6.7871598   -0.6332738 
Fe   -2.6282403   -1.0355312    1.6041361 
C    -0.6757979   -1.6227781    1.5036773 
C    -0.8591922   -0.6161097    2.5456208 
C    -1.8297687   -1.1403223    3.4739488 
C    -2.2428620   -2.4357242    3.0302522 
C    -1.5424851   -2.7374323    1.8200688 
C    -3.3696098   -0.5955110   -0.2636137 
C    -4.1778270   -1.5832085    0.3896816 
C    -4.6624599   -1.0143713    1.6164092 
C    -4.1465251    0.3220119    1.7227835 
C    -3.3482383    0.5783497    0.5569432 
C     0.0064119    0.5998945    2.8026510 
H    -2.2010994   -0.6319260    4.3639850 
H    -2.9882523   -3.0712223    3.5116506 
H    -1.6603683   -3.6498031    1.2368299 
H    -2.8470251   -0.7114277   -1.2131295 
H    -4.3780361   -2.5936699    0.0284986 
H    -5.2927090   -1.5184914    2.3513496 
H    -4.3303989    1.0116959    2.5490209 
H    -2.8297765    1.5037669    0.3084967 
H     2.2521472   -0.3882506    1.1924813 
C     4.6375895   -1.2870238    0.2522132 
C     3.2297405   -1.5089752   -0.3315266 
C     2.1661884   -1.4128851    0.7828080 
C     2.4401494   -2.3801102    1.9530316 
C     3.8493844   -2.1202860    2.5188922 
C     4.9223577   -2.2424478    1.4233974 
H     4.7130880   -0.2412060    0.6063793 
H     5.3949162   -1.4109172   -0.5428637 
H     3.1826803   -2.5030037   -0.8160514 
H     3.0161841   -0.7566670   -1.1151041 
H     1.6743202   -2.2507841    2.7393711 
H     2.3689301   -3.4286073    1.6153064 
H     3.8834268   -1.1001631    2.9518414 
H     4.0558050   -2.8244271    3.3446230 
H     4.9434429   -3.2856554    1.0503354 
H     5.9233348   -2.0387624    1.8438111 
H     0.9100129   -2.6128136   -1.8927128 
C    -1.3609430   -4.1277832   -2.5887382 
C    -1.1922539   -2.9517886   -1.6135064 
C     0.2437634   -2.8758474   -1.0469913 
C     0.7272751   -4.2258083   -0.4665732 
C     0.5255609   -5.3717903   -1.4760638 
C    -0.9315039   -5.4573728   -1.9525012 
H    -0.7460202   -3.9403361   -3.4871218 
H    -2.4117063   -4.1729922   -2.9279265 
H    -1.9169406   -3.0487276   -0.7865304 
H    -1.4226182   -2.0012356   -2.1250630 
H     1.7943237   -4.1587425   -0.1983783 
H     0.1836571   -4.4592282    0.4667242 
H     1.1839781   -5.2029712   -2.3508788 
H     0.8465128   -6.3232594   -1.0154163 
H    -1.5889433   -5.6906491   -1.0907071 
H    -1.0516936   -6.2850039   -2.6740156 
H     1.0296868    0.2101642    2.9688524 
C    -0.4061105    1.3758058    4.0657113 
H    -0.2748093    0.7317635    4.9519017 
H     0.2025704    2.2833708    4.2040874 
H    -1.4598981    1.6924958    4.0202800 
C     4.8680439    2.6051657    1.3406592 
C     4.1810468    2.4257703    2.5511038 
C     2.8048607    2.1586941    2.5505068 
C     2.0983077    2.0513022    1.3328460 
C     2.8004153    2.2323838    0.1231012 
C     4.1736619    2.5127415    0.1255690 
H     5.9425418    2.8146045    1.3452935 
H     4.7166668    2.5003070    3.5030672 
H     2.2884750    2.0417419    3.5077188 
H     2.2636534    2.1349245   -0.8268388 
H     4.7027469    2.6475839   -0.8233143 
C    -1.6177946    5.8061914    2.3971546 
C    -2.4103867    4.6503422    2.3325208 
C    -1.8365900    3.4224115    1.9855796 
C    -0.4577389    3.3307836    1.6992105 
C     0.3294733    4.5006041    1.7475064 
C    -0.2502533    5.7277000    2.1010129 
H    -2.0671920    6.7659477    2.6715757 
H    -3.4816051    4.7031164    2.5510923 
H    -2.4585195    2.5260566    1.9619616 
H     1.3985752    4.4561293    1.5198298 
H     0.3747208    6.6258230    2.1435514 
