134
Energy =
C     2.7434519    2.4320280    0.0785139 
C     2.1163998    2.7904785   -1.1259461 
C     0.8101915    3.4008720   -1.1287072 
H     2.5764845    2.4991087   -2.0786727 
Pd    0.6345456    1.3945100   -0.2491848 
P    -1.6917746    1.3151716    0.1055128 
P     1.2137837   -0.8758063   -0.0474486 
H     2.3096901    2.8326869    1.0088548 
H     0.5829330    4.1029288   -0.3147260 
C     6.5289142    0.4878882    0.6335475 
C     5.6863157    0.7418198    1.7270961 
C     4.4703560    1.4027736    1.5290031 
C     4.0517645    1.7912035    0.2327353 
C     4.9252059    1.5534509   -0.8554788 
C     6.1519347    0.9150679   -0.6509494 
H     7.4796543   -0.0342332    0.7781636 
H     5.9752838    0.4333751    2.7362768 
H     3.8357759    1.6313009    2.3911745 
H     4.6524653    1.8759464   -1.8637478 
H     6.8192295    0.7377390   -1.4996025 
C    -1.4454213    4.0208700   -4.7541888 
C    -0.5388198    2.9512715   -4.6665090 
C     0.2024551    2.7503493   -3.4981758 
C     0.0669124    3.6198856   -2.3883415 
C    -0.8339441    4.7042992   -2.5024236 
C    -1.5872003    4.8984389   -3.6677735 
H    -2.0305658    4.1743970   -5.6666426 
H    -0.4140458    2.2629071   -5.5084989 
H     0.8875483    1.8988225   -3.4474708 
H    -0.9333808    5.4083326   -1.6698328 
H    -2.2790170    5.7447886   -3.7310980 
Fe   -2.4743059   -3.9372153   -0.3295478 
C    -1.2185933   -2.3826855   -0.0006920 
C    -2.5557104   -1.8852122   -0.3091890 
C    -3.4672312   -2.4651735    0.6473942 
H    -4.5443899   -2.2922643    0.6644854 
C    -2.7166240   -3.2686688    1.5667589 
H    -3.1238742   -3.8485474    2.3967479 
C    -1.3385180   -3.2220381    1.1749557 
H    -0.5359820   -3.7756138    1.6617205 
C    -1.5214371   -5.2680826   -1.5577848 
H    -0.4839399   -5.2132373   -1.8944090 
C    -2.6559841   -4.7010745   -2.2288801 
H    -2.6324720   -4.1551333   -3.1739129 
C    -3.8260581   -4.9933754   -1.4484726 
H    -4.8501461   -4.6964125   -1.6825666 
C    -3.4134603   -5.7490179   -0.3003002 
H    -4.0646503   -6.1104833    0.4975270 
C    -1.9892488   -5.9180977   -0.3668971 
H    -1.3688245   -6.4282937    0.3726029 
C    -2.9452757   -0.8922357   -1.3468826 
C    -2.5717066    0.4799276   -1.2848947 
C    -2.8333359    1.3057177   -2.4052921 
H    -2.4934145    2.3455764   -2.4114354 
C    -3.5256721    0.8283080   -3.5220148 
H    -3.7037225    1.4960732   -4.3707436 
C    -3.9968282   -0.4913401   -3.5311983 
H    -4.5718835   -0.8721916   -4.3813243 
C    -3.6961954   -1.3332490   -2.4560799 
H    -4.0133486   -2.3786733   -2.4650495 
C     2.7134973   -1.0922240   -1.1086138 
C     2.6882679   -0.4593408   -2.3633786 
H     1.8189960    0.1385382   -2.6528777 
C     3.7661033   -0.5775515   -3.2487559 
C     4.8972913   -1.3205991   -2.8918997 
H     5.7475650   -1.3980334   -3.5745156 
C     4.9383826   -1.9261038   -1.6264223 
C     3.8586907   -1.8195013   -0.7379697 
H     3.9376641   -2.2840402    0.2479402 
C     1.7497795   -1.5827710    1.5611940 
C     2.0475449   -0.6901551    2.6031751 
H     1.9352361    0.3833443    2.4394825 
C     2.4773271   -1.1622590    3.8488658 
C     2.5867819   -2.5406434    4.0860121 
H     2.8911117   -2.9153117    5.0665250 
C     2.2967826   -3.4334514    3.0460298 
C     1.9042330   -2.9613836    1.7844465 
H     1.7183875   -3.6859797    0.9861137 
C     0.0523892   -2.1855192   -0.7965976 
H     0.6305052   -3.1236921   -0.7195484 
C    -0.1774639   -1.8889890   -2.2916428 
H    -0.9981685   -2.5298306   -2.6484368 
H    -0.4707178   -0.8405800   -2.4702932 
H     0.7220477   -2.1115780   -2.8857573 
C     2.8630138   -0.1654127    4.9197829 
F     2.6622885   -0.6472242    6.1599052 
F     4.1756557    0.1730511    4.8184721 
F     2.1541087    0.9887399    4.7960052 
C     2.3581104   -4.9322665    3.2509031 
F     1.1182873   -5.4788875    3.1030199 
F     3.1541311   -5.5162897    2.3253516 
F     2.8118991   -5.2676714    4.4716735 
C     3.7074490    0.2051502   -4.5396934 
F     4.6440665   -0.1747167   -5.4237960 
F     2.4913698    0.0951913   -5.1308133 
F     3.8917719    1.5390360   -4.2918737 
C     6.1781257   -2.6965327   -1.2191394 
F     6.2498442   -2.8529222    0.1237535 
F     6.2020463   -3.9269771   -1.7764601 
F     7.3038226   -2.0523722   -1.6167046 
H    -2.0531862    3.4857797   -0.7675793 
C    -2.3937345    5.3461478    1.1732476 
C    -1.9680918    3.8750356    1.3389321 
C    -2.4696260    3.0272689    0.1483884 
C    -4.0098909    3.1168600    0.0397596 
C    -4.4242212    4.5882796   -0.1554366 
C    -3.9156274    5.4739691    0.9941609 
H    -1.8816288    5.7775846    0.2911968 
H    -2.0563528    5.9300217    2.0482390 
H    -2.4056192    3.4857330    2.2763934 
H    -0.8697734    3.7949377    1.4431920 
H    -4.3854934    2.5014492   -0.7941612 
H    -4.4760958    2.7262286    0.9604661 
H    -4.0130699    4.9538244   -1.1175752 
H    -5.5239620    4.6555309   -0.2354857 
H    -4.4164965    5.1683699    1.9340069 
H    -4.1915613    6.5292081    0.8199331 
H    -1.7666032   -0.5770758    1.5424272 
C    -3.6300514   -0.3267701    3.5361150 
C    -3.4824312    0.5238827    2.2582182 
C    -2.0279607    0.4750642    1.7472365 
C    -1.0539197    0.9606684    2.8460976 
C    -1.1809441    0.0653364    4.0896307 
C    -2.6234451    0.0844951    4.6237217 
H    -3.4705594   -1.3891624    3.2768567 
H    -4.6642526   -0.2419362    3.9155294 
H    -3.7514779    1.5699270    2.4933119 
H    -4.1820652    0.1770430    1.4779096 
H    -0.0203787    0.9586033    2.4575298 
H    -1.2785444    2.0025956    3.1303607 
H    -0.8939992   -0.9708348    3.8205232 
H    -0.4722378    0.4040812    4.8654580 
H    -2.8610310    1.1070814    4.9778875 
H    -2.7181849   -0.5814264    5.4999625 
