112
Energy =
C     2.9158671   -1.6338664   -1.4053931 
C     3.0021856   -0.2585437   -1.7482077 
C     3.1573217    0.7414181   -0.7550312 
H     2.8069633    0.0458694   -2.7836265 
Pd    1.2422027   -0.4535424   -0.4346103 
P    -0.1467034    1.2449366    0.4089920 
P    -0.2490267   -2.2020144   -0.1048763 
H     3.3734465   -1.9456673   -0.4553777 
H     3.6090695    0.4266370    0.1976144 
C     2.3575139   -4.8730464   -4.1894497 
C     2.1280145   -3.5511233   -4.6065601 
C     2.2908097   -2.4893014   -3.7110473 
C     2.7100346   -2.7216702   -2.3791160 
C     2.9448759   -4.0572724   -1.9762101 
C     2.7631652   -5.1208754   -2.8686761 
H     2.2240183   -5.7030920   -4.8907783 
H     1.8091194   -3.3478739   -5.6340470 
H     2.0778794   -1.4712392   -4.0519845 
H     3.2667382   -4.2599034   -0.9493891 
H     2.9448089   -6.1464569   -2.5313887 
C     3.3102004    5.0003815   -1.3794712 
C     3.7845591    4.4284192   -0.1888538 
C     3.7416330    3.0406546   -0.0115136 
C     3.2169901    2.1906401   -1.0129728 
C     2.7620644    2.7817854   -2.2160880 
C     2.8092248    4.1690373   -2.3948352 
H     3.3420961    6.0852509   -1.5220002 
H     4.1940118    5.0649798    0.6024417 
H     4.1201997    2.5992570    0.9168762 
H     2.3646381    2.1550629   -3.0215501 
H     2.4534467    4.6056567   -3.3337747 
Fe   -2.8303070    0.4720902    2.8221543 
C    -1.7667500    0.7330467    1.0811451 
C    -2.2349839   -0.6414223    1.2433012 
C    -3.6758343   -0.6016470    1.3279884 
C    -4.1038885    0.7632499    1.2595026 
C    -2.9416948    1.5859456    1.1297777 
C    -3.6952769   -0.4116992    4.4412258 
C    -2.2680673   -0.5501402    4.5061595 
C    -1.6993072    0.7651751    4.5158209 
C    -2.7703014    1.7197181    4.4507333 
C    -4.0049805    0.9906994    4.4055601 
C    -1.3954541   -1.8941667    1.3662041 
H    -4.3330103   -1.4607448    1.4670298 
H    -5.1341300    1.1150641    1.3372504 
H    -2.9394518    2.6737088    1.0626636 
H    -4.4195887   -1.2276533    4.4037227 
H    -1.7129482   -1.4896940    4.5435443 
H    -0.6365472    0.9997654    4.5677943 
H    -2.6678169    2.8061381    4.4430395 
H    -5.0043865    1.4241024    4.3373416 
H    -0.6385446   -1.7142469    2.1527990 
C    -2.2203122   -3.1363779    1.7386419 
H    -2.8121849   -2.9266376    2.6459618 
H    -2.9140399   -3.4176238    0.9284026 
H    -1.5661894   -3.9971644    1.9470412 
H     0.4562461    2.2288648   -1.6401712 
C    -1.2083501    4.2323400   -2.4948503 
C    -1.0541878    3.6327542   -1.0822781 
C    -0.5463717    2.1797041   -1.1720363 
C    -1.4486290    1.3077839   -2.0738446 
C    -1.6045640    1.9297241   -3.4718462 
C    -2.1206941    3.3747157   -3.3859380 
H    -0.2064269    4.3081013   -2.9602647 
H    -1.5985059    5.2629051   -2.4153149 
H    -2.0314518    3.6666192   -0.5670314 
H    -0.3478538    4.2486630   -0.4993897 
H    -1.0288113    0.2878505   -2.1558405 
H    -2.4444461    1.2043093   -1.6024694 
H    -0.6216257    1.9203386   -3.9842438 
H    -2.2839425    1.3054707   -4.0798959 
H    -3.1455633    3.3709246   -2.9645474 
H    -2.1960479    3.8179127   -4.3950051 
H     1.3575096    3.0094879    0.9347742 
C     2.2603890    2.5825217    3.5861039 
C     1.5307647    1.6448791    2.6077733 
C     0.6751269    2.4322568    1.5886714 
C    -0.2907659    3.4025316    2.3002406 
C     0.4640707    4.3355422    3.2648982 
C     1.2900770    3.5443056    4.2901602 
H     3.0070672    3.1759551    3.0233861 
H     2.8231808    1.9844958    4.3254718 
H     0.8722786    0.9538509    3.1682634 
H     2.2569144    1.0091466    2.0693334 
H    -0.8503760    4.0032314    1.5654201 
H    -1.0356093    2.8056436    2.8525782 
H     1.1374469    4.9936336    2.6810424 
H    -0.2581809    4.9973216    3.7764918 
H     0.6072875    2.9690068    4.9460770 
H     1.8480382    4.2328768    4.9492534 
C    -2.7239826   -3.1504324   -3.9187044 
C    -1.4476092   -3.7054955   -3.7465340 
C    -0.7185595   -3.4565337   -2.5765433 
C    -1.2670497   -2.6491182   -1.5552583 
C    -2.5490636   -2.0845319   -1.7389167 
C    -3.2709689   -2.3400588   -2.9120756 
H    -3.2910567   -3.3473220   -4.8343522 
H    -1.0061013   -4.3353811   -4.5254956 
H     0.2750893   -3.8960640   -2.4608918 
H    -2.9835365   -1.4369911   -0.9735586 
H    -4.2660759   -1.9009591   -3.0384551 
C     2.0582680   -5.9208272    1.4727475 
C     2.4135912   -4.6192989    1.8623019 
C     1.7092986   -3.5211079    1.3525321 
C     0.6353543   -3.7117142    0.4564216 
C     0.2658723   -5.0216246    0.0927768 
C     0.9839566   -6.1178768    0.5925252 
H     2.6159545   -6.7800794    1.8591405 
H     3.2450341   -4.4598213    2.5566138 
H     1.9980020   -2.5026714    1.6435670 
H    -0.5796270   -5.1900362   -0.5807261 
H     0.6978446   -7.1317071    0.2940123 
