142
Energy =
C     2.6544852    2.1364654   -0.2749530 
C     3.2116153    0.8431763   -0.0709201 
C     2.9707990   -0.1958345   -1.0021051 
H     3.7333556    0.6195275    0.8673058 
Pd    1.0201673    0.5811884   -0.0319776 
P    -0.0460484   -1.5071889    0.1343100 
P    -0.5985961    2.2036130    0.4464708 
H     2.4355593    2.4192966   -1.3148253 
H     2.6172336    0.1113961   -1.9982131 
C     2.8631050    5.4804869    2.4257695 
C     3.0956802    4.1812539    2.9078272 
C     3.0474171    3.0862754    2.0402423 
C     2.7732071    3.2647873    0.6639261 
C     2.5707083    4.5811755    0.1888996 
C     2.6071932    5.6770735    1.0604606 
H     2.8769677    6.3322130    3.1121435 
H     3.2986683    4.0147854    3.9703988 
H     3.1949873    2.0805791    2.4463012 
H     2.3870330    4.7445559   -0.8781017 
H     2.4342715    6.6838500    0.6679190 
C     4.6638980   -4.1416896   -0.9697709 
C     3.8643889   -3.7137226   -2.0400036 
C     3.3068500   -2.4309981   -2.0276513 
C     3.5325371   -1.5511170   -0.9428342 
C     4.3318248   -2.0022804    0.1336030 
C     4.8912515   -3.2825027    0.1182837 
H     5.1061631   -5.1429750   -0.9783367 
H     3.6812043   -4.3779476   -2.8909954 
H     2.6900294   -2.0988996   -2.8685525 
H     4.5237290   -1.3498790    0.9899839 
H     5.4999464   -3.6174087    0.9640670 
Fe   -4.5324831    0.4688845   -1.5938049 
C    -2.7340455    0.9260595   -0.7804617 
C    -2.9450476   -0.5141783   -0.7330420 
C    -3.1744984   -0.9631060   -2.0843128 
H    -3.3681881   -1.9967433   -2.3731844 
C    -3.0645077    0.1591890   -2.9657306 
H    -3.1944767    0.1408147   -4.0489838 
C    -2.8064821    1.3236195   -2.1711364 
H    -2.7304102    2.3448739   -2.5472479 
C    -5.9000883    1.8662083   -0.9972362 
H    -5.6804943    2.8103568   -0.4944248 
C    -6.1653460    0.6102881   -0.3552310 
H    -6.2052362    0.4413478    0.7224853 
C    -6.3904893   -0.3735668   -1.3779723 
H    -6.6139152   -1.4307728   -1.2224242 
C    -6.2701360    0.2771886   -2.6505347 
H    -6.3655959   -0.2009963   -3.6270077 
C    -5.9685441    1.6608954   -2.4158681 
H    -5.7935438    2.4171749   -3.1835271 
C    -2.8815544   -1.3938843    0.4682315 
C    -1.6410276   -1.8105780    1.0296279 
C    -1.6382551   -2.5611531    2.2241712 
H    -0.6887506   -2.8773104    2.6640224 
C    -2.8372097   -2.9349313    2.8460409 
H    -2.8089523   -3.5142143    3.7746028 
C    -4.0593650   -2.5911404    2.2568805 
H    -5.0039789   -2.9040657    2.7135244 
C    -4.0704007   -1.8294712    1.0817192 
H    -5.0145836   -1.5351264    0.6210321 
C     1.1344782   -2.5479238    1.0842078 
C     1.4503920   -3.8728877    0.7425229 
H     1.0383178   -4.3209139   -0.1662094 
C     2.3249613   -4.6331850    1.5370593 
C     2.8840484   -4.0334475    2.6888194 
C     2.6029680   -2.6942904    3.0471653 
C     1.7250996   -1.9694967    2.2264231 
H     1.5030333   -0.9271400    2.4850177 
C    -0.3455833   -2.3141730   -1.4797860 
C    -0.9991981   -3.5611359   -1.5548770 
H    -1.3270588   -4.0646806   -0.6383069 
C    -1.2708472   -4.1577749   -2.7949560 
C    -0.8858853   -3.4671294   -3.9708912 
C    -0.2703624   -2.1950321   -3.9269214 
C    -0.0071383   -1.6387430   -2.6638579 
H     0.4391757   -0.6391569   -2.6049796 
C    -0.3277830    2.9339445    2.1110077 
C     0.2538241    2.0423331    3.0308043 
H     0.5439603    1.0417829    2.6927217 
C     0.4761360    2.4201116    4.3602101 
C     0.1348430    3.7056953    4.7941235 
H     0.3160204    4.0093559    5.8286392 
C    -0.4461336    4.5996381    3.8811930 
C    -0.6954587    4.2176930    2.5557662 
H    -1.1920923    4.9335047    1.8988118 
C    -0.3894858    3.4441121   -0.9004814 
C    -0.1256264    2.8592151   -2.1527968 
H    -0.0660742    1.7678710   -2.2343910 
C     0.0752298    3.6470210   -3.2915158 
C     0.0433398    5.0443649   -3.2002122 
H     0.2202851    5.6654919   -4.0819402 
C    -0.2069023    5.6320319   -1.9512004 
C    -0.4385883    4.8455195   -0.8110255 
H    -0.6191797    5.3543622    0.1357530 
C    -2.4731823    1.8662319    0.3679599 
H    -2.9032830    2.8491393    0.1028466 
C    -3.0199627    1.4331883    1.7380545 
H    -4.0620054    1.0987623    1.6107766 
H    -2.4499243    0.5977259    2.1748354 
H    -3.0007915    2.2742334    2.4494105 
C     0.3169634    2.9293506   -4.5985167 
F    -0.7981045    2.2627687   -5.0008421 
F     0.6851659    3.7575185   -5.5898425 
F     1.2933844    1.9858614   -4.4537426 
C    -0.1149694    7.1354345   -1.7982872 
F    -0.8994566    7.5845763   -0.7926270 
F     1.1628049    7.5022430   -1.5029041 
F    -0.4660760    7.7801778   -2.9283834 
C     1.1902297    1.4514627    5.2738834 
F     0.7742818    0.1753060    5.0710108 
F     2.5345934    1.4611395    5.0233890 
F     1.0225931    1.7464841    6.5745891 
C    -0.7497316    6.0152376    4.3287276 
F    -1.6303432    6.6245727    3.5022909 
F    -1.2605204    6.0402040    5.5780148 
F     0.3804439    6.7661430    4.3406560 
C     2.6948718   -6.0487239    1.1647462 
H     2.1253957   -6.7812421    1.7671278 
H     2.4790058   -6.2461870    0.1025423 
H     3.7643088   -6.2332968    1.3577429 
C     3.2560628   -2.0636282    4.2544718 
H     4.2546388   -2.4980316    4.4238811 
H     3.3486241   -0.9724542    4.1354059 
H     2.6567519   -2.2352819    5.1679602 
C    -1.9821590   -5.4856285   -2.9028663 
H    -2.7984047   -5.4303449   -3.6427437 
H    -1.2948311   -6.2801493   -3.2474722 
H    -2.3956965   -5.7950436   -1.9295665 
C     0.0556248   -1.4490405   -5.1996042 
H     0.0117735   -0.3598712   -5.0440729 
H     1.0749088   -1.6897860   -5.5574525 
H    -0.6493745   -1.7267661   -5.9998543 
O     3.8185040   -4.7429355    3.4123833 
O    -1.2173143   -4.0249443   -5.1852524 
C     3.3206369   -5.4651519    4.5479430 
H     4.1868002   -5.9750991    4.9951759 
H     2.8706061   -4.7823179    5.2931876 
H     2.5666310   -6.2159849    4.2445713 
C    -0.1747601   -4.7563766   -5.8460101 
H    -0.6137140   -5.1502764   -6.7745479 
H     0.6837915   -4.1039697   -6.0937597 
H     0.1804672   -5.5970853   -5.2200125 
