134
Energy =
C    -0.2744576    1.2713622   -3.1557146 
C     0.7456260    0.2932406   -3.3204641 
C     0.4532516   -1.0899306   -3.2322949 
H     1.7881336    0.6271727   -3.4056484 
Pd   -0.0153476    0.0161111   -1.2930135 
P     0.5092707   -1.8160232    0.1443717 
P    -0.9736255    1.5497104    0.2387700 
H    -1.3028795    0.9711635   -3.4079973 
H    -0.5898999   -1.3936270   -3.4064930 
C     0.6182757    5.4555466   -3.5834642 
C     1.4125295    4.6523942   -2.7491820 
C     1.1187058    3.2945664   -2.5958712 
C     0.0163025    2.7162438   -3.2606991 
C    -0.7914739    3.5377823   -4.0762426 
C    -0.4806511    4.8926290   -4.2493126 
H     0.8496028    6.5185771   -3.7070941 
H     2.2569577    5.0903612   -2.2066236 
H     1.7169358    2.6734887   -1.9225561 
H    -1.6548603    3.1049527   -4.5943653 
H    -1.1054103    5.5140337   -4.8990419 
C     3.3119672   -4.2230501   -3.9445825 
C     3.7427921   -3.0001857   -3.4025880 
C     2.8211702   -1.9781869   -3.1546475 
C     1.4475918   -2.1581045   -3.4341334 
C     1.0279221   -3.3958738   -3.9673089 
C     1.9516276   -4.4153363   -4.2255078 
H     4.0341970   -5.0209847   -4.1455936 
H     4.8035044   -2.8427883   -3.1791807 
H     3.1628493   -1.0282052   -2.7344144 
H    -0.0337118   -3.5561497   -4.1811535 
H     1.6053174   -5.3674197   -4.6397080 
Fe    4.0569104    1.1093523    1.3787222 
C     2.6480179   -0.0779730    0.4722033 
C     2.0115873    1.0201781    1.1870214 
C     2.5513901    2.2490587    0.6509128 
H     2.3056897    3.2539078    0.9899539 
C     3.4976779    1.9280334   -0.3783749 
H     4.0954804    2.6433927   -0.9464830 
C     3.5550816    0.5008818   -0.4877998 
H     4.2090090   -0.0657881   -1.1531153 
C     4.8826043    0.3081996    3.0877588 
H     4.4887762   -0.4976471    3.7092645 
C     4.6246360    1.7104865    3.2556833 
H     3.9764490    2.1618872    4.0091400 
C     5.3587440    2.4182357    2.2473806 
H     5.3577957    3.4989951    2.0933142 
C     6.0658775    1.4539650    1.4529155 
H     6.6975437    1.6735681    0.5900425 
C     5.7680989    0.1489096    1.9694863 
H     6.1516444   -0.7953702    1.5784369 
C     0.9482482    0.9053611    2.2308987 
C    -0.4211963    1.1985176    1.9680202 
C    -1.3625434    1.1133702    3.0115464 
H    -2.4160530    1.3222729    2.8086775 
C    -0.9873079    0.7058256    4.2963339 
H    -1.7435639    0.6250985    5.0836002 
C     0.3493848    0.3824306    4.5549122 
H     0.6578172    0.0492906    5.5510729 
C     1.2988273    0.4984727    3.5335577 
H     2.3497618    0.2791222    3.7285286 
C    -0.4906676   -2.2183176    1.6481842 
C    -1.7855649   -1.6850665    1.7347422 
H    -2.1245956   -0.9694934    0.9855892 
C    -2.6640730   -2.0470434    2.7702545 
C    -2.2153982   -2.9719368    3.7279407 
H    -2.8822667   -3.2584760    4.5508047 
C    -0.9345213   -3.5519102    3.6526985 
C    -0.0830576   -3.1761615    2.5979778 
H     0.8875721   -3.6683738    2.5137497 
C     0.3895163   -3.4672039   -0.6658862 
C    -0.8838092   -3.8060822   -1.1709181 
H    -1.7006334   -3.0747670   -1.1148283 
C    -1.1259055   -5.0681538   -1.7309756 
C    -0.0618618   -5.9941501   -1.7734475 
H    -0.2360764   -6.9861074   -2.2079473 
C     1.2171174   -5.6788445   -1.2891776 
C     1.4342251   -4.3981270   -0.7370519 
H     2.4372622   -4.1467599   -0.3787817 
C     2.3420570   -1.5634875    0.5510962 
H     2.8073762   -2.0108913   -0.3467847 
C     2.9139471   -2.2724316    1.7882912 
H     3.9964583   -2.0738264    1.8282558 
H     2.4579560   -1.8956349    2.7161045 
H     2.7664262   -3.3638635    1.7394712 
C    -2.4850593   -5.4299504   -2.2878936 
C     2.3472989   -6.6818708   -1.3421728 
C    -4.0399196   -1.4243656    2.8626085 
C    -0.4963637   -4.5920635    4.6611541 
C    -5.5600356    0.8631619   -0.0692307 
C    -4.6827954    0.0308072   -0.7906079 
C    -3.3023762    0.2674184   -0.6742264 
C    -2.8035086    1.2936570    0.1515784 
C    -3.7064451    2.1265708    0.8397190 
C    -5.0950985    1.9147492    0.7443979 
H    -6.6409412    0.6962468   -0.1530526 
H    -2.5910312   -0.3608173   -1.2297441 
H    -3.3305497    2.9640475    1.4381750 
C    -0.9140938    6.1746221   -0.0613962 
C    -1.7023491    5.4296560   -0.9603773 
C    -1.6678888    4.0283144   -0.8764833 
C    -0.8982198    3.3846587    0.1133976 
C    -0.1606878    4.1549336    1.0295285 
C    -0.1427520    5.5591949    0.9404293 
H    -0.9245106    7.2696725   -0.1278293 
H    -2.2757456    3.4357509   -1.5673258 
H     0.3764392    3.6651377    1.8476022 
H    -4.8303400   -2.1961061    2.8788110 
H    -4.1418180   -0.8377417    3.7945559 
H    -4.2346486   -0.7483457    2.0139184 
H    -0.8596016   -5.5955056    4.3691321 
H     0.6026183   -4.6463328    4.7367495 
H    -0.9024913   -4.3764108    5.6640757 
H    -3.2161694   -4.6196265   -2.1291322 
H    -2.4275772   -5.6308306   -3.3736661 
H    -2.8792399   -6.3448543   -1.8107320 
H     2.5168992   -7.1352568   -0.3475575 
H     2.1308378   -7.4994600   -2.0491513 
H     3.2907611   -6.1985158   -1.6498578 
C    -5.2074754   -1.1037382   -1.6423401 
H    -4.4288962   -1.4935898   -2.3195441 
H    -5.5475601   -1.9414386   -1.0048849 
H    -6.0708006   -0.7865402   -2.2521784 
C    -6.0606661    2.7855498    1.5174671 
H    -7.0354721    2.8595437    1.0075657 
H    -6.2450781    2.3621017    2.5229613 
H    -5.6610263    3.8040332    1.6566617 
C    -2.5983172    6.1311300   -1.9563512 
H    -3.0165633    5.4248324   -2.6908296 
H    -3.4410146    6.6248153   -1.4374434 
H    -2.0483032    6.9137877   -2.5064838 
C     0.6833617    6.3858360    1.9018491 
H     1.5678941    6.8109729    1.3913124 
H     0.1036630    7.2339982    2.3057545 
H     1.0435726    5.7797655    2.7498700 
