112
Energy =
C     2.3985753    2.3527487    0.5519619 
C     1.1958689    3.0369850    0.8556483 
C     0.3923690    2.6711973    1.9687275 
H     0.8266553    3.7870732    0.1446193 
Pd    0.6173722    0.9393688    0.5024914 
P    -1.3108584   -0.3181617    0.9478581 
P     1.5558086   -0.5630333   -1.0218117 
H     2.9082381    1.8322873    1.3774278 
H     0.9011443    2.1501266    2.7932167 
C     4.9603311    3.3708249   -2.7529334 
C     5.5039551    2.9863754   -1.5184673 
C     4.6604586    2.6374781   -0.4557154 
C     3.2569037    2.6968313   -0.5985570 
C     2.7231304    3.1029113   -1.8427041 
C     3.5646482    3.4250026   -2.9117716 
H     5.6190885    3.6283344   -3.5887102 
H     6.5899899    2.9443715   -1.3851716 
H     5.0905784    2.3145081    0.4982265 
H     1.6383593    3.1381374   -1.9814700 
H     3.1307878    3.7146070   -3.8744018 
C    -3.2073352    4.7112988    3.1760884 
C    -2.5139266    3.8860698    4.0741502 
C    -1.3463008    3.2293135    3.6673533 
C    -0.8521038    3.3653487    2.3486050 
C    -1.5661824    4.1980615    1.4545636 
C    -2.7206572    4.8709407    1.8681671 
H    -4.1151861    5.2338250    3.4938113 
H    -2.8756062    3.7646477    5.1004422 
H    -0.7962135    2.6116060    4.3846959 
H    -1.2216977    4.3178999    0.4221932 
H    -3.2489506    5.5222606    1.1642437 
Fe   -0.0072029   -3.5253674   -2.2888194 
C     0.8462264   -2.2415068   -0.9593848 
C    -0.5240567   -2.5600678   -0.5885065 
C    -0.5931082   -3.9898650   -0.4029311 
C     0.6973890   -4.5515671   -0.6762533 
C     1.5838339   -3.4860945   -1.0337000 
C    -1.5507793   -3.3175016   -3.6222636 
C    -0.3987760   -2.5961018   -4.0744143 
C     0.6855541   -3.5295137   -4.2099684 
C     0.1986226   -4.8289061   -3.8427972 
C    -1.1829972   -4.6975221   -3.4752323 
C     3.3309533   -0.8563325   -0.6637059 
C     3.6420960   -1.6048318    0.4960133 
C     4.9747596   -1.8229203    0.8605045 
C     6.0155056   -1.2959257    0.0763734 
C     5.7123506   -0.5337936   -1.0581667 
C     4.3769821   -0.2996832   -1.4238621 
C     1.4019629    0.0184503   -2.7536633 
C     0.3872805    0.9494795   -3.0515988 
C     0.1807727    1.3751735   -4.3715726 
C     0.9974036    0.8834120   -5.4012216 
C     2.0060811   -0.0498416   -5.1109753 
C     2.2023299   -0.4912612   -3.7959475 
C    -1.6624731   -1.5807203   -0.4246341 
H    -1.4824849   -4.5603660   -0.1331018 
H     0.9487273   -5.6134691   -0.6561836 
H     2.6374004   -3.5822397   -1.2989825 
H    -2.5340728   -2.8884454   -3.4211533 
H    -0.3542164   -1.5248763   -4.2729656 
H     1.6998657   -3.2954049   -4.5346272 
H     0.7821138   -5.7511956   -3.8212120 
H    -1.8323836   -5.5020858   -3.1250168 
H     2.8367593   -2.0291926    1.1049882 
H     4.1618552    0.3307226   -2.2908892 
H    -0.2386391    1.3398231   -2.2392473 
H     2.9703571   -1.2413963   -3.5839091 
H    -1.6739059   -0.9342330   -1.3223907 
C    -3.0171975   -2.3004341   -0.3152579 
H    -3.0875149   -3.0566525   -1.1153412 
H    -3.1347062   -2.8188427    0.6510942 
H    -3.8580113   -1.6028929   -0.4388637 
H     5.2029327   -2.4103813    1.7559199 
H     6.5151367   -0.1002626   -1.6630560 
H    -0.6130034    2.0955750   -4.5948940 
H     2.6357489   -0.4440532   -5.9152569 
H     7.0586405   -1.4750879    0.3565400 
H     0.8441867    1.2206536   -6.4314670 
H    -2.4758201    1.6124860    1.6657635 
C    -5.1900884    1.2636175    1.8331740 
C    -4.0858283    0.1916580    1.7595791 
C    -2.8370394    0.7656870    1.0507492 
C    -3.1752687    1.3339457   -0.3490027 
C    -4.3311124    2.3492776   -0.2863300 
C    -5.5615357    1.7721230    0.4310133 
H    -4.8332357    2.1107041    2.4515041 
H    -6.0765533    0.8444020    2.3419060 
H    -4.4762732   -0.6853146    1.2169302 
H    -3.8300596   -0.1542560    2.7755564 
H    -2.2722691    1.8076648   -0.7816145 
H    -3.4618847    0.5101921   -1.0305087 
H    -3.9875719    3.2462533    0.2583762 
H    -4.5917203    2.6732522   -1.3102027 
H    -5.9801537    0.9346639   -0.1623843 
H    -6.3546789    2.5381270    0.4968899 
H    -2.0836182   -1.9076835    2.6175797 
C    -1.1154771   -1.0368347    5.0969170 
C    -1.1927965   -0.2813239    3.7585149 
C    -1.1880733   -1.2570604    2.5600956 
C     0.0846228   -2.1355812    2.6205747 
C     0.1759431   -2.8931502    3.9576922 
C     0.1275743   -1.9381308    5.1602769 
H    -2.0281736   -1.6525338    5.2181763 
H    -1.1120878   -0.3109294    5.9301513 
H    -0.3106326    0.3794971    3.6618481 
H    -2.0798924    0.3735268    3.7435360 
H     0.1139337   -2.8488308    1.7829605 
H     0.9658327   -1.4709939    2.5079618 
H    -0.6656671   -3.6106662    4.0216968 
H     1.1026916   -3.4947312    3.9759272 
H     1.0361193   -1.3032458    5.1573444 
H     0.1432511   -2.5075109    6.1065707 
