112
Energy =
C     2.5454706    0.6445939   -2.2339638 
C     1.3789409    0.8473767   -3.0243139 
C     0.5205797    1.9575953   -2.8581913 
H     1.0668134    0.0487089   -3.7096913 
Pd    0.7412877    0.7089415   -0.9217839 
P    -1.3712896    0.7340726    0.1598714 
P     1.6144094   -0.4621201    0.8802297 
H     3.0492541    1.5340704   -1.8270680 
H     0.9419151    2.8657807   -2.4009426 
C     5.1033809   -2.7652279   -2.8434008 
C     3.7246472   -2.8746733   -3.0891158 
C     2.8790689   -1.7848902   -2.8572192 
C     3.3967967   -0.5507159   -2.3983662 
C     4.7813576   -0.4623621   -2.1395258 
C     5.6254468   -1.5576286   -2.3598404 
H     5.7641282   -3.6192100   -3.0238570 
H     3.3084534   -3.8165899   -3.4623180 
H     1.8018113   -1.8941975   -3.0268685 
H     5.1998599    0.4813763   -1.7746389 
H     6.6964233   -1.4654811   -2.1537708 
C    -2.8272956    2.6317006   -5.4820008 
C    -2.4939417    1.3208288   -5.1017231 
C    -1.4267977    1.0905181   -4.2266508 
C    -0.6660395    2.1665246   -3.7125552 
C    -1.0256217    3.4806738   -4.0907511 
C    -2.0902792    3.7105144   -4.9706363 
H    -3.6619770    2.8102195   -6.1672030 
H    -3.0714019    0.4747957   -5.4887466 
H    -1.1818190    0.0645190   -3.9325211 
H    -0.4475010    4.3277652   -3.7044915 
H    -2.3443356    4.7354382   -5.2594933 
Fe    0.0209878   -3.7265194    0.7397287 
C     0.4872465   -1.8131386    1.3498416 
C    -0.9325855   -1.9211026    0.9938753 
C    -1.4951720   -2.9377677    1.8449687 
C    -0.4735593   -3.4674631    2.6961747 
C     0.7491855   -2.7943718    2.3865895 
C    -0.1587197   -4.4418559   -1.1959964 
C     1.2103155   -4.4730028   -0.7820011 
C     1.3043695   -5.2865870    0.3959856 
C    -0.0143776   -5.7587000    0.7091507 
C    -0.9207531   -5.2307381   -0.2726867 
C     1.7540268    0.6763206    2.3348669 
C     1.8463041    0.2006436    3.6585179 
C     2.1309046    1.0871931    4.7052250 
C     2.3388974    2.4511747    4.4419948 
C     2.2398178    2.9327526    3.1289582 
C     1.9431150    2.0496196    2.0799169 
C     3.3307203   -1.1322445    0.8991302 
C     4.4052803   -0.2569214    1.1721288 
C     5.7154686   -0.7475023    1.2284059 
C     5.9731021   -2.1083212    1.0028731 
C     4.9115828   -2.9760142    0.7127305 
C     3.5980194   -2.4907900    0.6604422 
C    -1.7995172   -1.0939276    0.0495306 
H    -2.5376892   -3.2629330    1.8192367 
H    -0.5960398   -4.2710227    3.4244484 
H     1.7213775   -2.9842074    2.8456809 
H    -0.5419809   -3.9307130   -2.0773526 
H     2.0338581   -3.9635967   -1.2824079 
H     2.2123112   -5.5023147    0.9623590 
H    -0.2848606   -6.3916234    1.5562149 
H    -1.9988920   -5.3993515   -0.3034825 
H     1.7000798   -0.8614833    3.8741205 
H     1.8640326    2.4220098    1.0503793 
H     4.2218847    0.8051892    1.3624668 
H     2.7629822   -3.1608669    0.4623717 
H     2.1980068    0.7104317    5.7310385 
H     2.3897281    3.9967554    2.9191527 
H     6.5388206   -0.0614945    1.4529192 
H     5.1016299   -4.0383072    0.5273819 
H     2.5689320    3.1385325    5.2623870 
H     6.9985217   -2.4889700    1.0506901 
H    -2.8333697   -1.1833974    0.4274732 
C    -1.8054089   -1.5620238   -1.4161463 
H    -0.7853769   -1.5412649   -1.8375786 
H    -2.1879426   -2.5930598   -1.4678087 
H    -2.4589051   -0.9252477   -2.0358652 
H    -2.6021282    1.1959918   -1.7966907 
H    -0.6371703    0.6014446    2.4048105 
C    -3.7506966    3.8973798   -1.3107733 
C    -2.4683237    3.1412743   -0.8784053 
C    -2.7245331    1.6105754   -0.7766504 
C    -4.1742205    1.3363223   -0.3245361 
C    -5.1604938    1.7840277   -1.4327543 
C    -4.6415100    3.0224331   -2.2042830 
H    -3.4664981    4.8274922   -1.8333398 
H    -4.3229900    4.2065606   -0.4153943 
H    -2.1112905    3.5502532    0.0784447 
H    -1.6643119    3.3094570   -1.6106770 
H    -4.3397152    0.2721223   -0.0818632 
H    -4.3676368    1.9025545    0.6039846 
H    -5.3269859    0.9505123   -2.1394995 
H    -6.1388446    2.0009017   -0.9677326 
H    -5.4894193    3.6067830   -2.6014918 
H    -4.0522949    2.6986582   -3.0806673 
C    -2.6233053    0.5986973    4.2364281 
C    -2.7529972    0.4208902    2.7107008 
C    -1.5473968    1.0813108    1.9994153 
C    -1.4718209    2.5796343    2.3656916 
C    -1.3505499    2.7588693    3.8894138 
C    -2.5139921    2.0803370    4.6283380 
H    -1.7211016    0.0568543    4.5830533 
H    -3.4890405    0.1274124    4.7357933 
H    -3.6954679    0.8820687    2.3669034 
H    -2.8104976   -0.6546899    2.4787061 
H    -0.6208804    3.0636405    1.8547245 
H    -2.3926388    3.0851602    2.0195116 
H    -0.3934647    2.3197478    4.2248964 
H    -1.3093084    3.8359343    4.1324872 
H    -3.4616828    2.5949718    4.3739535 
H    -2.3848960    2.1797225    5.7210193 
