122
Energy =
C     3.5666575    0.9489080    0.0200741 
C     2.8370553    2.1618679    0.0748161 
C     2.1312223    2.5487390    1.2395683 
H     2.7409238    2.7667975   -0.8352249 
Pd    1.3295707    0.5601092    0.4078357 
P    -0.9396070    0.9254301    0.9015249 
P     1.4709244   -1.7322306   -0.1831101 
H     3.9185189    0.5310569    0.9730793 
H     2.4187124    2.0540261    2.1799430 
C     5.8107183   -0.3944632   -3.3952931 
C     4.7247304    0.4780384   -3.5791104 
C     3.9824126    0.9192513   -2.4807177 
C     4.3063177    0.4962373   -1.1701794 
C     5.4056634   -0.3745845   -1.0010489 
C     6.1506409   -0.8146419   -2.1014275 
H     6.3891463   -0.7410864   -4.2578251 
H     4.4522401    0.8089202   -4.5865895 
H     3.1309094    1.5878283   -2.6459014 
H     5.6757666   -0.7030822    0.0080035 
H     6.9988635   -1.4895350   -1.9462430 
C     0.0441102    6.2625596    1.8694977 
C     0.3208020    5.4009306    2.9416767 
C     1.0133388    4.2053948    2.7177379 
C     1.4316791    3.8318007    1.4179996 
C     1.1750033    4.7292085    0.3551083 
C     0.4878997    5.9265809    0.5792540 
H    -0.4960497    7.1993940    2.0391887 
H     0.0045053    5.6640928    3.9563828 
H     1.2453709    3.5473320    3.5620985 
H     1.5106258    4.4919158   -0.6585206 
H     0.2993775    6.6066737   -0.2578991 
Fe   -3.4688503   -2.1654647   -1.7351382 
C    -2.0388833   -1.0444707   -0.8153927 
C    -1.5170779   -2.3678769   -1.1284194 
C    -1.6579027   -2.5744471   -2.5499947 
H    -1.3511553   -3.4757260   -3.0811341 
C    -2.2133462   -1.3910302   -3.1285809 
H    -2.4441640   -1.2388127   -4.1840901 
C    -2.4612689   -0.4577908   -2.0690424 
H    -2.9446828    0.5109833   -2.1915193 
C    -5.2125672   -1.9067573   -0.6996225 
H    -5.3828399   -1.2034264    0.1183891 
C    -4.7547677   -3.2602892   -0.5657226 
H    -4.5326614   -3.7689895    0.3743092 
C    -4.6563506   -3.8296206   -1.8811483 
H    -4.3348118   -4.8439911   -2.1252190 
C    -5.0599922   -2.8284132   -2.8267470 
H    -5.0804110   -2.9421446   -3.9121159 
C    -5.4046440   -1.6406673   -2.0970013 
H    -5.7321649   -0.6943299   -2.5318170 
C    -0.8923544   -3.3515134   -0.2061473 
C     0.3833231   -3.1321267    0.3857433 
C     0.8733833   -4.0652509    1.3248915 
H     1.8458293   -3.9079603    1.7970841 
C     0.1506141   -5.2217810    1.6448253 
H     0.5550322   -5.9265092    2.3784629 
C    -1.0626447   -5.4829080    0.9968349 
H    -1.6205872   -6.4007135    1.2090483 
C    -1.5694985   -4.5512221    0.0841889 
H    -2.5258987   -4.7241403   -0.4135614 
C    -2.2220173   -0.4211322    0.5547740 
H    -3.1766608    0.1327119    0.5270653 
C    -2.3156248   -1.4519536    1.6954219 
H    -2.9695352   -2.2757235    1.3681311 
H    -1.3395925   -1.8864602    1.9577301 
H    -2.7524369   -1.0024444    2.5995749 
C     5.5115570   -3.2196478    1.6179041 
C     4.6334956   -2.4127856    2.3607859 
C     3.4400455   -1.9617118    1.7822302 
C     3.1067766   -2.3121534    0.4546911 
C     3.9982479   -3.1082572   -0.2863987 
C     5.1917418   -3.5617197    0.2970290 
H     6.4445634   -3.5739479    2.0679862 
H     4.8775496   -2.1365693    3.3918193 
H     2.7533248   -1.3359500    2.3670349 
H     3.7813744   -3.3596542   -1.3273826 
H     5.8798676   -4.1749793   -0.2938931 
C     1.4077484   -2.2483160   -4.7984640 
C     1.5827568   -3.3782606   -3.9821117 
C     1.6039028   -3.2430804   -2.5883223 
C     1.4729833   -1.9656570   -2.0025303 
C     1.2781368   -0.8421577   -2.8248104 
C     1.2453812   -0.9825968   -4.2184438 
H     1.3850154   -2.3597817   -5.8876184 
H     1.6904257   -4.3701886   -4.4333190 
H     1.6931691   -4.1327051   -1.9554241 
H     1.1273156    0.1380408   -2.3594614 
H     1.0879424   -0.1025492   -4.8505584 
H    -0.5708457    2.4220742    2.6560051 
C    -0.2595589    1.1111252    5.0726921 
C    -0.3117686    0.5330180    3.6469638 
C    -1.1103053    1.4561752    2.6939733 
C    -2.5232031    1.7606078    3.2392639 
C    -2.4405670    2.3315130    4.6689713 
C    -1.6698314    1.3963705    5.6133089 
H     0.3243731    2.0527100    5.0675923 
H     0.2782436    0.4112718    5.7373056 
H    -0.7745479   -0.4684463    3.6837623 
H     0.7110007    0.3892110    3.2472120 
H    -3.0387891    2.4843256    2.5871160 
H    -3.1387276    0.8420047    3.2482357 
H    -1.9327300    3.3158633    4.6321087 
H    -3.4605121    2.5160493    5.0510888 
H    -2.2222682    0.4412516    5.7145083 
H    -1.6112213    1.8356910    6.6250411 
H    -1.1015299    3.2714141    0.5233942 
C    -3.3355731    3.9406104   -1.0047983 
C    -3.0222967    2.6451649   -0.2327019 
C    -1.4965289    2.4364888   -0.0883245 
C    -0.7843017    2.4947405   -1.4638670 
C    -1.1524580    3.7612027   -2.2575036 
C    -2.6731918    3.9330015   -2.3907728 
H    -2.9670645    4.8094699   -0.4248680 
H    -4.4303750    4.0582936   -1.0949683 
H    -3.4749505    1.7966538   -0.7763244 
H    -3.5070811    2.6721662    0.7571542 
H     0.3094629    2.4467670   -1.3054827 
H    -1.0439163    1.5996629   -2.0554934 
H    -0.7417372    4.6469151   -1.7380694 
H    -0.6735349    3.7239326   -3.2529788 
H    -3.0911085    3.1014449   -2.9931668 
H    -2.9067175    4.8648056   -2.9358796 
