142
Energy =
C     2.9305575    1.8155657   -1.4202119 
C     3.4054207    0.5109537   -1.0911525 
C     2.9759368   -0.6468418   -1.7755869 
H     4.0213816    0.3922985   -0.1911273 
Pd    1.2230324    0.5109424   -0.7809671 
P     0.0775222   -1.3515761    0.0997527 
P    -0.3834843    2.1158743   -0.2769204 
H     2.6532502    2.0117481   -2.4665742 
H     2.5104882   -0.5049037   -2.7632962 
C     4.0650305    5.2805467    0.8785122 
C     3.8933332    4.0417343    1.5180787 
C     3.5329638    2.9144189    0.7738130 
C     3.3181912    2.9981453   -0.6225558 
C     3.4923303    4.2498919   -1.2501036 
C     3.8690027    5.3767104   -0.5066252 
H     4.3335321    6.1682094    1.4587771 
H     4.0295228    3.9541824    2.6004603 
H     3.4090628    1.9533452    1.2855880 
H     3.3344150    4.3413482   -2.3290959 
H     3.9964381    6.3389567   -1.0127510 
C     4.2902143   -4.6693347   -1.0248849 
C     3.4124237   -4.3895824   -2.0828101 
C     2.9931275   -3.0756583   -2.3141068 
C     3.4285955   -2.0146012   -1.4859622 
C     4.3181158   -2.3145223   -0.4270203 
C     4.7442730   -3.6256412   -0.2014848 
H     4.6230980   -5.6961215   -0.8420962 
H     3.0594937   -5.1947254   -2.7352628 
H     2.3231940   -2.8637956   -3.1521695 
H     4.6860581   -1.5202822    0.2277950 
H     5.4257806   -3.8365700    0.6286749 
Fe   -4.4605681    0.0854464   -1.9385123 
C    -2.4964681    0.6668491   -1.6485768 
C    -2.8405761   -0.4527302   -0.7891413 
C    -3.2981873   -1.5258948   -1.6404429 
H    -3.6308786   -2.5009316   -1.2849937 
C    -3.2136745   -1.0999944   -3.0035612 
H    -3.5020123   -1.6855042   -3.8781882 
C    -2.7314294    0.2483035   -3.0102419 
H    -2.5834445    0.8745073   -3.8933624 
C    -5.7813947    1.6305552   -2.2717352 
H    -5.5493957    2.6593614   -2.5493348 
C    -5.9337261    1.1230059   -0.9379751 
H    -5.8441753    1.7004343   -0.0158327 
C    -6.2614601   -0.2722785   -1.0302523 
H    -6.4374095   -0.9534131   -0.1956149 
C    -6.3099140   -0.6238314   -2.4196005 
H    -6.5101187   -1.6188729   -2.8216478 
C    -6.0109799    0.5517500   -3.1865607 
H    -5.9495931    0.6096235   -4.2748998 
C    -2.6277281   -0.6036954    0.6775508 
C    -1.3731789   -1.0288602    1.2084324 
C    -1.2268184   -1.1772111    2.6031391 
H    -0.2609038   -1.4782758    3.0189495 
C    -2.3046340   -0.9490443    3.4697032 
H    -2.1671910   -1.0663730    4.5493522 
C    -3.5485726   -0.5718439    2.9505030 
H    -4.3957143   -0.3923836    3.6185252 
C    -3.6961026   -0.3951302    1.5692852 
H    -4.6539303   -0.0797001    1.1510039 
C     1.3126059   -2.1932330    1.1771027 
C     1.4790588   -3.5887776    1.1982655 
H     0.8710073   -4.2280152    0.5529450 
C     2.4581716   -4.1914607    2.0052013 
C     3.2877156   -3.3602248    2.7899393 
C     3.1695779   -1.9511829    2.7679248 
C     2.1713393   -1.3897363    1.9567390 
H     2.0786878   -0.2988759    1.9139317 
C    -0.5086330   -2.6042191   -1.0892275 
C    -1.2160432   -3.7458404   -0.6597897 
H    -1.4391859   -3.8851995    0.4042828 
C    -1.6701007   -4.6986714   -1.5829489 
C    -1.4155732   -4.4730510   -2.9587515 
C    -0.7052736   -3.3403887   -3.4147925 
C    -0.2658411   -2.4118751   -2.4568672 
H     0.2561101   -1.5063800   -2.7864159 
C    -0.7139592    2.1522515    1.5375694 
C    -1.9615787    2.3902441    2.1383586 
H    -2.8571926    2.5396274    1.5404575 
C    -2.0770196    2.4146165    3.5345886 
C    -0.9591706    2.2113206    4.3545315 
H    -1.0583554    2.2209217    5.4434351 
C     0.2846497    1.9744090    3.7563532 
C     0.4072028    1.9471373    2.3617701 
H     1.3854980    1.7736817    1.9071116 
C     0.1029383    3.8703470   -0.6122181 
C     0.3569752    4.7943283    0.4163228 
H     0.2876016    4.4996410    1.4656131 
C     0.7187451    6.1126077    0.1058497 
C     0.8156131    6.5366889   -1.2253678 
H     1.0942826    7.5668120   -1.4620384 
C     0.5889728    5.6093364   -2.2505949 
C     0.2524638    4.2834772   -1.9499387 
H     0.1117313    3.5796206   -2.7769764 
C    -1.9682826    2.0486499   -1.3072303 
H    -1.5355384    2.4192098   -2.2540856 
C    -3.0340763    3.0789331   -0.8753486 
H    -3.6297807    3.3588214   -1.7564925 
H    -3.7253004    2.6411731   -0.1417521 
H    -2.5838046    3.9976325   -0.4617798 
C     0.9966757    7.0980591    1.2222454 
F     2.0170689    7.9282681    0.8976659 
F    -0.0826862    7.8693099    1.4833182 
F     1.3318217    6.4650695    2.3720422 
C     0.8222328    6.0078017   -3.6911589 
F     0.0672480    5.2726655   -4.5419299 
F     0.5512943    7.3097778   -3.9061981 
F     2.1234078    5.8034244   -4.0402178 
C    -3.4258240    2.6659371    4.1761019 
F    -3.6479539    1.8000385    5.1957012 
F    -3.5080929    3.9140087    4.6841429 
F    -4.4403782    2.5183397    3.2874888 
C     1.4791789    1.6357706    4.6161858 
F     2.6500613    1.9545224    4.0018620 
F     1.4498023    2.2635795    5.8057221 
F     1.5220858    0.2965878    4.8661902 
C     2.6654130   -5.6866722    2.0035299 
H     2.2234505   -6.1525699    2.9040611 
H     2.1968860   -6.1492168    1.1201494 
H     3.7411789   -5.9279108    2.0105080 
C     4.1352381   -1.0952218    3.5519178 
H     5.1430320   -1.5419536    3.5354595 
H     4.1817771   -0.0722664    3.1459916 
H     3.8268886   -1.0081604    4.6090535 
C    -2.4176466   -5.9372862   -1.1493284 
H    -3.4879735   -5.8749199   -1.4207347 
H    -2.0141664   -6.8312178   -1.6537415 
H    -2.3549583   -6.0779508   -0.0583650 
C    -0.4359755   -3.1351698   -4.8865951 
H    -1.2486848   -2.5560471   -5.3648604 
H     0.4989832   -2.5714657   -5.0442229 
H    -0.3624240   -4.1029179   -5.4083821 
O     4.3262029   -3.9348615    3.4899033 
O    -1.8349781   -5.4269179   -3.8603065 
C     4.0628072   -4.2572867    4.8635559 
H     4.9862673   -4.7058648    5.2586474 
H     3.8135961   -3.3520228    5.4485171 
H     3.2328777   -4.9835810    4.9511579 
C    -3.0913092   -5.1687946   -4.5007085 
H    -3.2998288   -6.0397432   -5.1395201 
H    -3.9033290   -5.0541979   -3.7570713 
H    -3.0476268   -4.2578836   -5.1281108 
