98
Energy =
C    -0.6712663   -2.9617577    0.4126330 
C    -1.4406311   -2.2474381    1.3663635 
C    -2.5275885   -1.4310520    0.9742884 
H    -1.1359761   -2.2599891    2.4199706 
Pd   -0.5381786   -0.6963262    0.0758609 
P    -1.0512912    1.6041565    0.1007803 
P     1.5189259   -0.6993411   -1.1245436 
H    -1.1586412   -3.1930648   -0.5448272 
H    -2.9768318   -1.6317467   -0.0094968 
C     2.5962195   -5.5809258    1.4088842 
C     2.2377989   -4.5472173    2.2915766 
C     1.1793740   -3.6886629    1.9800808 
C     0.4485236   -3.8463127    0.7772601 
C     0.8136096   -4.8985432   -0.0938492 
C     1.8769631   -5.7557715    0.2175962 
H     3.4287495   -6.2484283    1.6528826 
H     2.7947089   -4.4058598    3.2235861 
H     0.9384373   -2.8663954    2.6618728 
H     0.2464368   -5.0516388   -1.0188984 
H     2.1417599   -6.5652408   -0.4703324 
C    -5.1569539    0.6528910    3.6742817 
C    -5.6036681    0.2461305    2.4083056 
C    -4.7366605   -0.4323189    1.5426370 
C    -3.4046001   -0.7198798    1.9218756 
C    -2.9784371   -0.3233647    3.2104773 
C    -3.8422239    0.3579623    4.0738370 
H    -5.8304730    1.1884195    4.3509590 
H    -6.6311862    0.4555191    2.0940050 
H    -5.0946948   -0.7524147    0.5583588 
H    -1.9568695   -0.5400211    3.5382212 
H    -3.4896219    0.6617958    5.0649240 
Fe    1.4980060    2.6016113   -1.8612791 
C     2.4018827    0.8873116   -1.3392928 
C     2.5770301    1.8904846   -0.3091201 
H     2.2403058    1.8080448    0.7232918 
C     3.2493746    3.0191224   -0.8793006 
H     3.4970102    3.9443130   -0.3562376 
C     3.5048611    2.7353859   -2.2594309 
H     3.9806698    3.4060900   -2.9770044 
C     2.9902052    1.4302761   -2.5518585 
C    -0.4168563    2.5911447   -1.2879068 
C    -0.2939795    2.0933767   -2.6421143 
H    -0.5856242    1.0972846   -2.9763750 
C     0.3014765    3.1177740   -3.4465984 
H     0.5536941    3.0338232   -4.5051093 
C     0.5433708    4.2571535   -2.6113144 
H     1.0126588    5.1923639   -2.9218034 
C     0.0976832    3.9469143   -1.2846013 
H     3.0204204    0.9530300   -3.5315040 
H     0.1644333    4.6145530   -0.4242258 
C    -0.4224726    2.4929258    1.6468479 
C    -1.6578449    3.2420612    2.2153126 
C    -2.6325986    3.5494193    1.0688951 
C    -2.8129638    2.2542416    0.2504715 
H     0.3193665    3.2206249    1.2704527 
H    -2.1629376    2.5873141    2.9498198 
H    -1.3503137    4.1576710    2.7492793 
H    -3.6081010    3.9034096    1.4483716 
H    -2.2308934    4.3487888    0.4173091 
H    -3.3475989    1.5175106    0.8747482 
C     1.4065619   -1.3201010   -2.9067454 
C     2.8141224   -1.9143342   -3.1506212 
C     3.2049990   -2.7354699   -1.9121510 
C     2.8706272   -1.9397122   -0.6181922 
H     1.2227856   -0.4397312   -3.5480983 
H     2.8207005   -2.5295475   -4.0688366 
H     3.5478015   -1.1039348   -3.3019975 
H     2.6420392   -3.6847743   -1.8999513 
H     4.2760738   -3.0015093   -1.9320374 
H     2.3902420   -2.6180687    0.1023974 
C     4.0788263   -1.2923844    0.0875249 
H     4.8838274   -2.0504713    0.1213355 
H     4.4727439   -0.4504942   -0.5117550 
C     3.7641408   -0.8402995    1.5189764 
H     2.8930660   -0.1619687    1.5484163 
H     3.5212631   -1.7084833    2.1558691 
H     4.6188886   -0.3091514    1.9705160 
C     0.2765400   -2.3463007   -3.1318882 
H     0.4693814   -2.8412073   -4.1024317 
H     0.3449559   -3.1443342   -2.3702250 
C    -1.1328168   -1.7490276   -3.1432952 
H    -1.9007216   -2.5318260   -3.2675503 
H    -1.3455114   -1.2171262   -2.1915105 
H    -1.2554347   -1.0228991   -3.9667298 
C     0.2739411    1.5638035    2.6591855 
H     1.0394231    0.9568690    2.1407298 
H    -0.4665291    0.8396823    3.0431237 
C     0.9199642    2.3223794    3.8257964 
H     1.4286675    1.6260108    4.5144022 
H     1.6717380    3.0452888    3.4595721 
H     0.1703737    2.8845678    4.4095529 
C    -3.5542585    2.4319954   -1.0828116 
H    -3.0060057    3.1613867   -1.7085198 
H    -4.5341608    2.8952251   -0.8585418 
C    -3.7716392    1.1317546   -1.8655311 
H    -4.3810599    0.4152601   -1.2890405 
H    -4.2895965    1.3244634   -2.8200533 
H    -2.8119374    0.6372820   -2.0981769 
