112
Energy =
C     2.5885452    1.9054946   -1.3530470 
C     1.7383073    1.6052739   -2.4344942 
C     0.4265085    2.1840266   -2.4987544 
H     2.0369957    0.8543380   -3.1774750 
Pd    0.5899949    0.8821019   -0.7086692 
P    -1.6418596    0.6638490   -0.0360453 
P     1.3757264   -0.7706114    0.7606766 
H     2.3155445    2.7833588   -0.7464734 
H     0.3170297    3.1947507   -2.0795836 
C     6.6324008    0.6338493   -0.6722102 
C     6.1205840    1.7773147   -0.0399077 
C     4.7966691    2.1695349   -0.2681201 
C     3.9649957    1.4408241   -1.1520922 
C     4.5054918    0.3082315   -1.8051313 
C     5.8193370   -0.0975079   -1.5561436 
H     7.6634154    0.3166196   -0.4850286 
H     6.7514821    2.3596497    0.6394942 
H     4.3923206    3.0484231    0.2457062 
H     3.8908221   -0.2706044   -2.4985240 
H     6.2131032   -0.9880971   -2.0560680 
C    -2.3357365    1.1921279   -5.6578547 
C    -1.5563640    0.1846823   -5.0639314 
C    -0.6561308    0.5035886   -4.0422135 
C    -0.5169272    1.8348941   -3.5836055 
C    -1.3015054    2.8364077   -4.1946892 
C    -2.1988833    2.5186587   -5.2236182 
H    -3.0412347    0.9435522   -6.4571446 
H    -1.6561515   -0.8538858   -5.3968157 
H    -0.0704742   -0.2909886   -3.5662575 
H    -1.2008639    3.8757080   -3.8629408 
H    -2.7936146    3.3119758   -5.6883226 
Fe   -0.5010794   -3.7760275    1.1835477 
C     0.0881901   -1.8401390    1.4834583 
C    -1.3262817   -1.8975597    1.1318498 
C    -1.9698882   -2.7259751    2.1180099 
C    -0.9938419   -3.1770826    3.0639106 
C     0.2784820   -2.6532219    2.6693889 
C    -0.1187502   -4.6033209   -0.6568949 
C     0.9203330   -4.9445297    0.2724451 
C     0.3204701   -5.6398522    1.3713185 
C    -1.0904823   -5.7298574    1.1234662 
C    -1.3617580   -5.0916117   -0.1321297 
C     2.3116635   -0.1327903    2.2064296 
C     1.6535216    0.1494879    3.4224682 
C     2.3458292    0.7519810    4.4809418 
C     3.7025343    1.0822478    4.3414578 
C     4.3633768    0.8044320    3.1361249 
C     3.6753357    0.2053589    2.0722930 
C     2.5213866   -1.9157361   -0.1159450 
C     2.2828621   -2.1639291   -1.4823523 
C     3.0827285   -3.0688690   -2.1931323 
C     4.1455272   -3.7198905   -1.5477079 
C     4.3893515   -3.4774862   -0.1865063 
C     3.5758581   -2.5892420    0.5318935 
C    -2.0801262   -1.1638427    0.0406214 
H    -3.0329491   -2.9767062    2.1249593 
H    -1.1777763   -3.8446573    3.9076398 
H     1.2305816   -2.8158598    3.1775109 
H     0.0221432   -4.0743950   -1.5992201 
H     1.9778347   -4.7049484    0.1658886 
H     0.8394822   -6.0085267    2.2581120 
H    -1.8315053   -6.1796075    1.7870510 
H    -2.3459429   -4.9945482   -0.5941265 
H     0.5987230   -0.1097023    3.5475447 
H     4.2074033   -0.0064526    1.1418699 
H     1.4688255   -1.6329164   -1.9903313 
H     3.7645375   -2.4251138    1.5972604 
H     1.8219691    0.9593092    5.4199335 
H     5.4225678    1.0536929    3.0146922 
H     2.8844360   -3.2572137   -3.2534518 
H     5.2122095   -3.9893554    0.3230701 
H     4.2427954    1.5496963    5.1710486 
H     4.7793865   -4.4188846   -2.1028823 
H    -3.1501618   -1.2183779    0.3050827 
C    -1.8888837   -1.7509613   -1.3713208 
H    -2.4321868   -1.1728203   -2.1380180 
H    -0.8194260   -1.7569448   -1.6381439 
H    -2.2543001   -2.7886806   -1.3911957 
H    -2.6812349    1.1037795   -2.1720868 
H    -2.9471927    2.0230866    1.4442818 
C    -3.9647410    3.5996902   -2.0110922 
C    -2.9038160    2.9608138   -1.0961465 
C    -2.9619132    1.4152248   -1.1480913 
C    -4.3873476    0.9014601   -0.8411483 
C    -5.4335498    1.5650228   -1.7577864 
C    -5.3747314    3.0967192   -1.6693670 
H    -3.7357431    3.3481602   -3.0623911 
H    -3.9081521    4.6997136   -1.9231699 
H    -3.0871231    3.3089572   -0.0617200 
H    -1.8932496    3.3081394   -1.3722818 
H    -4.4408687   -0.1940927   -0.9671531 
H    -4.6407175    1.1164834    0.2164220 
H    -5.2432124    1.2509988   -2.8028389 
H    -6.4398795    1.1948840   -1.4916375 
H    -5.6460657    3.4174945   -0.6438882 
H    -6.1185175    3.5488739   -2.3492013 
C    -1.2635730    3.3360955    3.2074920 
C    -0.9084763    2.5280658    1.9470823 
C    -2.0003564    1.4794538    1.6275744 
C    -2.2563118    0.5491441    2.8296790 
C    -2.6167870    1.3755877    4.0791539 
C    -1.5331738    2.4152390    4.4084242 
H    -2.1653709    3.9466836    3.0033952 
H    -0.4471871    4.0444140    3.4364752 
H     0.0564073    2.0056952    2.0968655 
H    -0.7683781    3.2051609    1.0840808 
H    -3.0704441   -0.1596893    2.6009521 
H    -1.3607376   -0.0614095    3.0373592 
H    -3.5802707    1.8940545    3.9052788 
H    -2.7748965    0.6947585    4.9348845 
H    -0.5957205    1.8935489    4.6830383 
H    -1.8312021    3.0116773    5.2889158 
