124
Energy =
C     2.2663376    1.3826351    1.4049160 
C     2.5753192    1.5221373    0.0199468 
C     1.8043171    2.3535460   -0.8221279 
H     3.3578841    0.8901017   -0.4181640 
Pd    0.5521632    0.6496398    0.1418935 
P    -0.9022287    0.0649637   -1.5916067 
P    -0.5031731   -0.7066378    1.7601093 
H     1.8108681    2.2591538    1.8864115 
H     1.1592038    3.0979640   -0.3299887 
C     4.4284265   -1.2079882    4.0744914 
C     4.3832244   -1.4998818    2.7010660 
C     3.6648379   -0.6787112    1.8284171 
C     2.9884987    0.4684144    2.3078721 
C     3.0298799    0.7408869    3.6934691 
C     3.7435469   -0.0881091    4.5679493 
H     4.9888962   -1.8556601    4.7565029 
H     4.8980655   -2.3833063    2.3107887 
H     3.6083345   -0.9440787    0.7674783 
H     2.5078051    1.6209910    4.0848789 
H     3.7684634    0.1443223    5.6376630 
C     2.6109581    3.3208848   -4.9317512 
C     1.6905152    4.0667717   -4.1817284 
C     1.4162561    3.7151605   -2.8560618 
C     2.0710288    2.6229757   -2.2406118 
C     3.0013375    1.8837877   -3.0110607 
C     3.2620624    2.2256074   -4.3408051 
H     2.8150790    3.5877917   -5.9730183 
H     1.1776697    4.9191850   -4.6365777 
H     0.6929897    4.2990849   -2.2770634 
H     3.5434984    1.0451709   -2.5656611 
H     3.9840042    1.6394646   -4.9186628 
Fe   -3.6840090    1.1988705    0.2296596 
C    -2.6012514   -0.0521843   -0.9689490 
C    -2.9703300   -0.7103449    0.2788144 
C    -4.4107634   -0.6927813    0.3463271 
C    -4.9274325   -0.0356381   -0.8157515 
C    -3.8206062    0.3638974   -1.6283584 
C    -4.7406970    2.9490437    0.3472318 
C    -4.8225251    2.2233156    1.5817457 
C    -3.4924414    2.0466656    2.0858018 
C    -2.5829976    2.6588452    1.1591634 
C    -3.3579815    3.2253744    0.0913935 
C    -2.1404828   -1.5323873    1.2434816 
H    -5.0012916   -1.0995660    1.1703039 
H    -5.9797431    0.1631010   -1.0271846 
H    -3.8778599    0.8938488   -2.5800393 
H    -5.5796904    3.2245371   -0.2942328 
H    -5.7364005    1.8436412    2.0424932 
H    -3.2252935    1.5229182    3.0023770 
H    -1.4954309    2.6837587    1.2444853 
H    -2.9696830    3.7926838   -0.7549291 
H    -2.7163720   -1.5548952    2.1824777 
C    -2.0062136   -2.9939815    0.7652983 
H    -1.3960475   -3.0836720   -0.1449864 
H    -1.5567696   -3.6262715    1.5477005 
H    -3.0141498   -3.3795836    0.5329789 
C     2.4277854   -4.3301280    2.2118068 
C     1.9894151   -3.8051147    0.9841107 
C     1.1245982   -2.7106890    0.9661419 
C     0.6416655   -2.1054919    2.1489307 
C     1.1005283   -2.5965128    3.4028932 
C     1.9769408   -3.7007213    3.3851623 
H     2.3335741   -4.2326608    0.0361718 
H     0.8205376   -2.3031396   -0.0018632 
H     2.3431798   -4.0710125    4.3503456 
C    -1.7771980    1.5576849    5.6139005 
C    -2.3113667    0.2722321    5.3802070 
C    -1.9231914   -0.4118938    4.2179175 
C    -1.0112904    0.1609947    3.3043746 
C    -0.5007595    1.4395019    3.5694277 
C    -0.8754221    2.1584248    4.7217907 
H    -2.0814376    2.1043612    6.5145348 
H    -2.3282133   -1.4151843    4.0473309 
H     0.1844274    1.8961242    2.8529504 
C     3.3602913   -5.5169129    2.2792175 
H     4.1257046   -5.3824790    3.0632260 
H     2.8008047   -6.4389074    2.5256414 
H     3.8714589   -5.6844824    1.3168384 
C     0.7541800   -2.0146712    4.7561803 
H     0.8166200   -0.9166673    4.7631186 
H    -0.2660036   -2.2933182    5.0735504 
H     1.4548884   -2.3985550    5.5144271 
C    -3.2635497   -0.3544619    6.3740324 
H    -3.7094207   -1.2824338    5.9802268 
H    -2.7372829   -0.6034912    7.3139029 
H    -4.0817567    0.3395747    6.6342683 
C    -0.3451974    3.5557085    4.9512219 
H    -0.5030909    3.8856364    5.9906608 
H     0.7349004    3.6169775    4.7294119 
H    -0.8577872    4.2768844    4.2873646 
C    -0.2905297   -4.2548370   -3.3120887 
C    -1.5539532   -3.7077038   -3.1697839 
C    -1.7088630   -2.3914838   -2.6675107 
C    -0.6042179   -1.6136707   -2.3245055 
H    -0.1668703   -5.2799056   -3.6778185 
H    -2.4432257   -4.2911699   -3.4281579 
H    -2.7184705   -1.9938944   -2.5261211 
C     0.7221355   -2.1383328   -2.5162445 
C     0.8710838   -3.4940917   -2.9929239 
C     2.1821247   -4.0392487   -3.1405682 
C     3.3070433   -3.2868969   -2.8468704 
C     3.1632957   -1.9446341   -2.4063714 
C     1.9047445   -1.3875688   -2.2538527 
H     2.2826783   -5.0696506   -3.4985715 
H     4.3061721   -3.7185478   -2.9640510 
H     4.0564313   -1.3477951   -2.1909643 
H     1.7970126   -0.3510451   -1.9180239 
C    -0.3093603    0.8035401   -4.2366894 
C    -0.9779172    1.1477137   -3.0658009 
C    -1.6893850    2.3829996   -2.9977066 
C    -1.7662713    3.2126051   -4.1007881 
H     0.2491963   -0.1348329   -4.3087045 
H    -2.1970314    2.6436911   -2.0673222 
H    -2.3345631    4.1479740   -4.0446188 
C    -1.0975013    2.8829228   -5.3160944 
C    -0.3437952    1.6558812   -5.3760923 
C     0.3556082    1.3304950   -6.5749559 
C     0.3183579    2.1822939   -7.6669973 
C    -0.4237107    3.3931706   -7.6076317 
C    -1.1198447    3.7342524   -6.4581304 
H     0.9294816    0.3982882   -6.6152957 
H     0.8606829    1.9250263   -8.5827595 
H    -0.4459796    4.0566360   -8.4784463 
H    -1.6926972    4.6671800   -6.4132279 
