122
Energy =
C     1.6776603   -2.6321645    1.8310135 
C     2.5649641   -1.5709283    2.0899384 
C     2.2187326   -0.5199070    3.0044088 
H     3.4736851   -1.4797840    1.4823652 
Pd    0.7474226   -0.5306456    1.3533846 
P    -0.4206577    1.4184931    1.9658114 
P     0.0538114   -0.8904432   -0.8554042 
H     0.8342923   -2.7668318    2.5274526 
H     1.6070910   -0.7854043    3.8767443 
C     2.2548868   -5.9348263   -0.8527698 
C     1.0273148   -5.7493799   -0.1984879 
C     0.8605425   -4.6777597    0.6842213 
C     1.9078617   -3.7519735    0.9120181 
C     3.1463383   -3.9627440    0.2598537 
C     3.3149684   -5.0464620   -0.6071193 
H     2.3901216   -6.7682096   -1.5487261 
H     0.2010040   -6.4472588   -0.3675967 
H    -0.0912903   -4.5596882    1.2103144 
H     3.9873932   -3.2872607    0.4370860 
H     4.2781489   -5.1988924   -1.1033172 
C     4.5534641    3.0734322    3.4537758 
C     4.6603300    2.3142651    2.2758151 
C     3.9086573    1.1458482    2.1215789 
C     3.0382613    0.6995986    3.1476116 
C     2.9469298    1.4709400    4.3295594 
C     3.6938855    2.6463573    4.4780036 
H     5.1407965    3.9896847    3.5732503 
H     5.3278954    2.6361019    1.4699883 
H     4.0028706    0.5807071    1.1894317 
H     2.2806263    1.1451316    5.1345023 
H     3.6048671    3.2289226    5.4005830 
Fe   -2.4699228    2.7491722   -2.6285706 
C    -1.5453667    1.3663891   -1.4729669 
C    -1.6256702    2.6396262   -0.7639725 
C    -3.0181341    3.0069386   -0.6922544 
H    -3.3974238    3.9151353   -0.2232272 
C    -3.7972677    1.9723377   -1.2983308 
H    -4.8830793    1.9649803   -1.4029725 
C    -2.9007991    0.9679658   -1.7864571 
H    -3.1974965    0.0773991   -2.3415507 
C    -1.6876346    2.6302614   -4.5162006 
H    -0.9780275    1.8848410   -4.8817678 
C    -1.3514965    3.8911666   -3.9189809 
H    -0.3413042    4.2773523   -3.7704724 
C    -2.5750913    4.5608328   -3.5748231 
H    -2.6651117    5.5391768   -3.0990464 
C    -3.6661704    3.7150908   -3.9688426 
H    -4.7270881    3.9295787   -3.8283378 
C    -3.1181296    2.5218012   -4.5499794 
H    -3.6884752    1.6697735   -4.9255428 
C    -0.5130671    3.3894582   -0.1192961 
C     0.1384200    2.9058890    1.0494812 
C     1.3231954    3.5315387    1.4987060 
H     1.8709168    3.1162509    2.3497004 
C     1.8052184    4.6868748    0.8735446 
H     2.7259306    5.1533715    1.2379425 
C     1.0941134    5.2412425   -0.2001933 
H     1.4407200    6.1641473   -0.6764306 
C    -0.0432052    4.5882936   -0.6903728 
H    -0.5758690    4.9784124   -1.5609305 
C     1.5084020   -1.6365217   -1.7141582 
C     1.4508065   -2.7308379   -2.5950947 
H     0.5054645   -3.2362111   -2.8071151 
C     2.6264522   -3.2145551   -3.1872243 
C     3.8700784   -2.6246946   -2.9141001 
H     4.7838654   -3.0180873   -3.3669153 
C     3.9275429   -1.5513419   -2.0173332 
C     2.7588727   -1.0626474   -1.4214427 
H     2.8247397   -0.2296476   -0.7139261 
C    -1.3290520   -2.0420360   -1.2299891 
C    -1.8855272   -2.1670868   -2.5149441 
H    -1.4808321   -1.6039530   -3.3615275 
C    -2.9865867   -3.0078846   -2.7302479 
C    -3.5318481   -3.7559457   -1.6781201 
H    -4.3887086   -4.4115141   -1.8521166 
C    -2.9630832   -3.6493786   -0.4008247 
C    -1.8741501   -2.7960475   -0.1778461 
H    -1.4516667   -2.7048178    0.8274003 
C    -0.3088939    0.6301266   -1.9364800 
H    -0.5402228    0.2009796   -2.9275228 
C     0.9472719    1.5076647   -2.0827165 
H     0.6531537    2.4502216   -2.5698658 
H     1.3992633    1.7620590   -1.1094300 
H     1.7075799    1.0138940   -2.7073950 
C    -3.6118917   -3.0188645   -4.1092714 
F    -4.5310771   -3.9909203   -4.2495668 
F    -4.2264988   -1.8274595   -4.3507953 
F    -2.6727801   -3.1779425   -5.0699295 
C    -3.5638473   -4.3877675    0.7754614 
F    -2.5959373   -4.8337690    1.6204512 
F    -4.3664500   -3.5668939    1.5018112 
F    -4.3005240   -5.4456715    0.3917025 
C     2.5653164   -4.3986500   -4.1307145 
F     3.6050763   -5.2437655   -3.9196957 
F     1.4229705   -5.1075704   -3.9685519 
F     2.6227505   -4.0059586   -5.4219647 
C     5.2468452   -0.9615087   -1.5765181 
F     5.1828606    0.3899192   -1.4872667 
F     5.5685546   -1.4103698   -0.3224576 
F     6.2626475   -1.2853593   -2.3927862 
C    -0.2385076    2.2059905    6.5588447 
C    -0.4864607    0.9275693    6.0316978 
C    -0.5016042    0.7347831    4.6456159 
C    -0.2664740    1.8139591    3.7665077 
C    -0.0532927    3.0982772    4.3003792 
C    -0.0323275    3.2872492    5.6913065 
H    -0.2184075    2.3584402    7.6427759 
H    -0.6699395    0.0812078    6.7015298 
H    -0.7112357   -0.2616305    4.2368525 
H     0.0969981    3.9574050    3.6408175 
H     0.1439006    4.2896936    6.0950607 
C    -5.0548173    1.0607301    2.0297671 
C    -4.2796321   -0.0009452    1.5455258 
C    -2.8848589    0.1300981    1.4770206 
C    -2.2578950    1.3132018    1.8956242 
C    -3.0406961    2.3748020    2.3971278 
C    -4.4329541    2.2489348    2.4520907 
H    -6.1438482    0.9631319    2.0885708 
H    -4.7501596   -0.9367045    1.2288563 
H    -2.2760934   -0.6929807    1.0982643 
H    -2.5611031    3.2957888    2.7456934 
H    -5.0370883    3.0775966    2.8359529 
