104
Energy =
C    -0.9010466    2.8444631    0.9298748 
C    -2.2430728    2.5018975    0.5426314 
C    -2.9640523    1.5115127    1.2252889 
H    -2.6803935    2.9727685   -0.3469850 
Pd   -0.8751127    0.7649616    0.2156576 
P    -1.1405945   -1.2669747   -0.9829132 
P     1.3143579    0.4317567    0.9175586 
H    -0.6523855    2.7680773    1.9975294 
H    -2.5341627    1.1566970    2.1748376 
C     1.5415524    5.5790100   -1.3360389 
C     1.7301558    5.4325553    0.0463568 
C     0.9212246    4.5556980    0.7787655 
C    -0.0871929    3.7950083    0.1453347 
C    -0.2670337    3.9569548   -1.2505759 
C     0.5342389    4.8411159   -1.9799598 
H     2.1718803    6.2669046   -1.9086908 
H     2.5062698    6.0109154    0.5581779 
H     1.0551541    4.4655621    1.8612267 
H    -1.0264794    3.3649068   -1.7746553 
H     0.3784277    4.9514757   -3.0584389 
C    -7.0235573    0.2402347    0.6620144 
C    -6.2693927   -0.2184140    1.7529437 
C    -4.9473686    0.2074141    1.9152726 
C    -4.3491048    1.1017305    0.9932151 
C    -5.1312759    1.5701901   -0.0908117 
C    -6.4498257    1.1384559   -0.2551688 
H    -8.0584599   -0.0914928    0.5300998 
H    -6.7134236   -0.9086320    2.4773838 
H    -4.3566913   -0.1576362    2.7632121 
H    -4.7079379    2.2787579   -0.8089993 
H    -7.0405886    1.5093623   -1.0990147 
Fe    3.3570938   -2.3795462    0.1576195 
C     1.7803668   -1.3278273    0.8851961 
C     1.3471608   -2.2712945   -0.1348686 
C     1.7306137   -3.5868650    0.3116088 
C     2.3907801   -3.4672132    1.5801339 
C     2.4355780   -2.0798524    1.9351689 
C     4.3090157   -2.4008074   -1.6654139 
C     4.6007082   -1.1874914   -0.9631187 
C     5.2122946   -1.5356100    0.2890784 
C     5.2973676   -2.9671349    0.3570503 
C     4.7337048   -3.5029266   -0.8497431 
C     1.2727230    0.8370975    2.7095389 
C     0.5303335   -0.0128669    3.5614094 
C     0.3462149    0.3201472    4.9085800 
C     0.8903647    1.5081514    5.4240047 
C     1.6208575    2.3593523    4.5832477 
C     1.8102341    2.0309811    3.2318550 
C     2.6649765    1.4033033    0.1632890 
C     3.9087684    1.5865665    0.8029908 
C     4.9287935    2.2951032    0.1558600 
C     4.7197891    2.8148782   -1.1327211 
C     3.4876477    2.6257766   -1.7752254 
C     2.4606354    1.9252333   -1.1274619 
C     0.6108981   -1.9137028   -1.4021144 
H     1.5836683   -4.5180825   -0.2372844 
H     2.8230813   -4.2881651    2.1549920 
H     2.8741492   -1.6560648    2.8396454 
H     3.8485256   -2.4702772   -2.6522396 
H     4.3906597   -0.1780539   -1.3179054 
H     5.5514167   -0.8378299    1.0552638 
H     5.6964304   -3.5481483    1.1905487 
H     4.6310278   -4.5617378   -1.0947578 
H     0.0994560   -0.9381895    3.1664126 
H     2.3768404    2.7072759    2.5863331 
H     4.0829499    1.1660970    1.7986584 
H     1.4906116    1.7901268   -1.6161353 
H     1.0746338   -0.9855013   -1.7843337 
C     0.7582965   -2.9972880   -2.4863075 
H     0.1812346   -3.9060513   -2.2678073 
H     0.4537163   -2.6273382   -3.4762184 
H     1.8218717   -3.2807851   -2.5450910 
H    -0.2237768   -0.3511656    5.5594070 
H     2.0504740    3.2859198    4.9781792 
H     5.8935080    2.4360945    0.6541839 
H     3.3182919    3.0350568   -2.7758316 
C    -1.9128215   -0.8110071   -2.6847856 
C    -2.1146238   -2.6392177   -0.0735776 
C    -3.1072131    0.1379331   -2.4370430 
H    -3.5108576    0.4684861   -3.4118943 
H    -3.9264423   -0.3345432   -1.8774163 
H    -2.7846767    1.0343403   -1.8792393 
C    -1.6828867   -2.5446007    1.4109246 
H    -2.2338708   -3.3054770    1.9941104 
H    -0.6043090   -2.7303651    1.5431213 
H    -1.9230675   -1.5502017    1.8273506 
C    -0.8382092    0.0010585   -3.4496238 
H    -1.2996754    0.4422850   -4.3515826 
H    -0.4518330    0.8318153   -2.8289504 
H     0.0134764   -0.6129860   -3.7831224 
C    -2.3851816   -2.0146479   -3.5266878 
H    -2.7484139   -1.6438469   -4.5032271 
H    -1.5847108   -2.7420493   -3.7254246 
H    -3.2230533   -2.5451951   -3.0468169 
C    -3.6225746   -2.3270346   -0.1597663 
H    -4.1629184   -2.9933595    0.5371975 
H    -3.8444170   -1.2906039    0.1367917 
H    -4.0312525   -2.5039569   -1.1674314 
C    -1.8509631   -4.0661642   -0.5935839 
H    -2.4973607   -4.7689669   -0.0359178 
H    -2.0886314   -4.1750998   -1.6638936 
H    -0.8081390   -4.3756351   -0.4232494 
H     0.7458881    1.7671619    6.4777832 
H     5.5206424    3.3672974   -1.6348510 
