98
Energy =
C    -0.6396518   -2.9857115    0.3920534 
C    -1.5012361   -2.2895646    1.2824925 
C    -2.5765758   -1.5159037    0.7864986 
H    -1.2719285   -2.2708669    2.3550676 
Pd   -0.5477041   -0.7480601    0.0299830 
P    -1.0349754    1.5604939    0.0522289 
P     1.5395853   -0.7703696   -1.0838379 
H    -1.0649521   -3.2680709   -0.5811712 
H    -2.9358069   -1.7538109   -0.2259097 
C     2.6834230   -5.4184469    1.6413616 
C     2.2497161   -4.3581620    2.4560928 
C     1.1780742   -3.5539881    2.0571879 
C     0.5032615   -3.8021686    0.8385811 
C     0.9478180   -4.8745154    0.0314729 
C     2.0292229   -5.6725250    0.4268479 
H     3.5272924   -6.0417880    1.9536620 
H     2.7598609   -4.1517968    3.4024871 
H     0.8757972   -2.7099920    2.6863930 
H     0.4304669   -5.0897850   -0.9101516 
H     2.3561538   -6.5001498   -0.2109430 
C    -5.4594419    0.6180286    3.1593700 
C    -4.1844670    0.3541880    3.6895255 
C    -3.2386419   -0.3466688    2.9351691 
C    -3.5426338   -0.7900455    1.6265108 
C    -4.8303342   -0.5215627    1.1085723 
C    -5.7813571    0.1695582    1.8698999 
H    -6.1983693    1.1663127    3.7523075 
H    -3.9288900    0.6973633    4.6974006 
H    -2.2475320   -0.5357631    3.3599797 
H    -5.0826197   -0.8574296    0.0966221 
H    -6.7757686    0.3609364    1.4541183 
Fe    1.4880114    2.5279630   -1.9578521 
C     2.3773939    0.8179212   -1.4092295 
C     2.5911558    1.8438411   -0.4094732 
H     2.2833995    1.7855020    0.6346578 
C     3.2670966    2.9454905   -1.0278571 
H     3.5401218    3.8822189   -0.5389643 
C     3.4891588    2.6167080   -2.4042894 
H     3.9598720    3.2591292   -3.1505419 
C     2.9526000    1.3099493   -2.6467268 
C    -0.4177029    2.5373427   -1.3520592 
C    -0.3228672    2.0348485   -2.7064605 
H    -0.6299330    1.0414486   -3.0329570 
C     0.2692774    3.0516800   -3.5235126 
H     0.5021983    2.9627412   -4.5860442 
C     0.5374170    4.1905926   -2.6958841 
H     1.0108026    5.1202186   -3.0167845 
C     0.1133202    3.8871883   -1.3604901 
H     2.9650283    0.7939225   -3.6075869 
H     0.2039839    4.5549808   -0.5024064 
C    -0.3661711    2.4506452    1.5771824 
C    -1.5640830    3.2790679    2.1209408 
C    -2.5621505    3.5547477    0.9830377 
C    -2.7821165    2.2176247    0.2464846 
H     0.4182640    3.1269917    1.1925398 
H    -2.0755580    2.6870096    2.9031290 
H    -1.2141465    4.2120527    2.5951279 
H    -3.5153261    3.9466225    1.3791225 
H    -2.1666053    4.3139466    0.2820380 
H    -3.2778212    1.5233274    0.9467074 
C     1.5263160   -1.5892639   -2.7920301 
C     2.8381728   -2.4343340   -2.8402158 
C     3.8123418   -2.0100194   -1.7276923 
C     2.9785833   -1.7971248   -0.4484014 
H     1.5669368   -0.7537403   -3.5125342 
H     2.5647137   -3.4933967   -2.6781135 
H     3.3011493   -2.3715757   -3.8400562 
H     4.5842574   -2.7834027   -1.5695742 
H     4.3393862   -1.0740424   -1.9914149 
H     2.5322778   -2.7643889   -0.1547350 
C     3.7107031   -1.1953675    0.7613938 
H     4.0898530   -0.1899081    0.5015624 
H     2.9802428   -1.0580903    1.5821897 
C     4.8771110   -2.0650665    1.2529782 
H     5.3191618   -1.6397699    2.1703065 
H     4.5397817   -3.0914248    1.4786089 
H     5.6786272   -2.1290357    0.4969262 
C     0.2894205   -2.4477596   -3.1197861 
H     0.5095007   -2.9789628   -4.0657016 
H     0.1929056   -3.2386165   -2.3536491 
C    -1.0322515   -1.6907726   -3.2677034 
H    -1.8634089   -2.3832934   -3.4854322 
H    -1.2856726   -1.1431509   -2.3346809 
H    -0.9846236   -0.9547271   -4.0899414 
C     0.2689348    1.5016500    2.6129207 
H     1.0171080    0.8565685    2.1130425 
H    -0.5113999    0.8149412    2.9909708 
C     0.9256621    2.2445745    3.7839390 
H     1.3868298    1.5351562    4.4924069 
H     1.7174175    2.9268879    3.4243306 
H     0.1912918    2.8488853    4.3444455 
C    -3.5789073    2.2606060   -1.0670655 
H    -3.6161194    1.2371194   -1.4892743 
H    -3.0390813    2.8823357   -1.8057761 
C    -5.0078174    2.7944489   -0.8906709 
H    -5.0063388    3.8503189   -0.5691641 
H    -5.5655092    2.7368579   -1.8410695 
H    -5.5599627    2.2114249   -0.1330601 
