124
Energy =
C    -0.0376359   -2.1100634   -2.1590751 
C     0.6120117   -1.0256564   -2.8000344 
C     1.8630209   -0.5372378   -2.3441882 
H     0.1010760   -0.4852760   -3.6066682 
Pd    0.2464613   -0.3497637   -0.7328459 
P     1.2150277    1.3946622    0.5391267 
P    -1.4994072   -0.7244993    0.7844576 
H     0.6011745   -2.7702205   -1.5544852 
H     2.4895354   -1.2286184   -1.7611074 
C    -3.6226180   -4.0697319   -3.5006529 
C    -2.8777529   -4.5874435   -2.4304829 
C    -1.7289859   -3.9233477   -1.9903071 
C    -1.2976407   -2.7246260   -2.6060372 
C    -2.0700366   -2.2075116   -3.6733392 
C    -3.2144198   -2.8768519   -4.1181683 
H    -4.5206005   -4.5914407   -3.8467778 
H    -3.1990700   -5.5073236   -1.9320545 
H    -1.1489623   -4.3401556   -1.1596336 
H    -1.7628915   -1.2886721   -4.1830865 
H    -3.7891313   -2.4680878   -4.9558892 
C     4.0636887    2.4524417   -4.5079707 
C     4.7294202    1.4052434   -3.8548038 
C     4.0046374    0.4704822   -3.1060129 
C     2.5950419    0.5398216   -3.0317668 
C     1.9389776    1.6040248   -3.6913979 
C     2.6661047    2.5546222   -4.4128557 
H     4.6306371    3.1905327   -5.0845104 
H     5.8186972    1.3199539   -3.9232783 
H     4.5295276   -0.3440913   -2.5941961 
H     0.8495151    1.6895414   -3.6360736 
H     2.1412644    3.3786105   -4.9068389 
Fe   -2.5923328    2.2926639   -0.3816813 
C    -2.2188748    0.9172103    1.0797802 
C    -1.4499318    2.1359076    1.3056639 
C    -2.4023338    3.2111740    1.4249636 
C    -3.7247170    2.6856827    1.2692274 
C    -3.6199869    1.2746428    1.0556872 
C    -3.6855237    2.0118730   -2.0914986 
C    -3.5590556    3.4083877   -1.7854308 
C    -2.1611109    3.7339989   -1.7615940 
C    -1.4228450    2.5365523   -2.0516188 
C    -2.3647298    1.4767340   -2.2585934 
C     0.0050624    2.3058875    1.6860360 
H    -2.1420901    4.2576808    1.5983199 
H    -4.6512621    3.2625581    1.2791454 
H    -4.4474113    0.5835723    0.8903823 
H    -4.6227805    1.4573583   -2.1675892 
H    -4.3813642    4.0979621   -1.5865459 
H    -1.7407124    4.7194634   -1.5546960 
H    -0.3386643    2.4445812   -2.1068387 
H    -2.1117841    0.4407225   -2.4904500 
H     0.2439758    3.3742393    1.5487995 
C     0.2200972    1.9603037    3.1798033 
H    -0.6310075    2.3514471    3.7634102 
H     0.2841462    0.8759996    3.3471049 
H     1.1411018    2.4186925    3.5669547 
C     4.4335148   -0.6424533    3.2580747 
C     3.5613322   -1.3721633    2.4288731 
C     2.6422608   -0.7017151    1.6208337 
C     2.5440517    0.7059469    1.6099566 
C     3.4253477    1.4654853    2.4297380 
C     4.3446427    0.7614285    3.2317121 
H     3.5865653   -2.4669954    2.4222612 
H     1.9635742   -1.2792284    0.9822929 
H     5.0186217    1.3420730    3.8738608 
C     3.2982884    4.8572139   -1.7282308 
C     1.9243360    4.9613456   -1.4528067 
C     1.3009325    3.9076580   -0.7584290 
C     2.0232041    2.7592960   -0.3865650 
C     3.3930239    2.6675490   -0.7057820 
C     4.0519387    3.7297446   -1.3453367 
H     3.8026944    5.6840400   -2.2426735 
H     0.2416319    3.9942369   -0.4970653 
H     3.9639048    1.7822755   -0.4071602 
C     5.4481438   -1.3452429    4.1296661 
H     5.7653732   -0.7138025    4.9758789 
H     5.0439316   -2.2909898    4.5289398 
H     6.3528310   -1.5967089    3.5442824 
C     3.4593248    2.9799746    2.4865175 
H     4.3089497    3.3663436    1.8943936 
H     2.5541770    3.4526188    2.0784086 
H     3.5974027    3.3235437    3.5260066 
C     1.1203250    6.1624922   -1.8996826 
H     0.5649705    5.9339723   -2.8293079 
H     0.3777180    6.4566436   -1.1375405 
H     1.7663571    7.0319078   -2.1038999 
C     5.5479720    3.6960255   -1.5608570 
H     5.9466128    2.6733531   -1.4669202 
H     5.8214832    4.0847075   -2.5562329 
H     6.0572625    4.3291282   -0.8096835 
C    -0.3161131   -2.2226960    5.0549781 
C    -1.2265864   -1.1935730    4.8869253 
C    -1.5886694   -0.7679159    3.5839334 
C    -1.0450304   -1.3718671    2.4528601 
H    -0.0187111   -2.5418924    6.0597286 
H    -1.6643169   -0.6930788    5.7563955 
H    -2.2892119    0.0657023    3.4696516 
C    -0.1540831   -2.4911737    2.5995138 
C     0.2318369   -2.9016643    3.9278990 
C     1.1309007   -3.9993559    4.0811578 
C     1.6089160   -4.6914721    2.9808493 
C     1.1974707   -4.3153170    1.6742264 
C     0.3377818   -3.2439704    1.4935345 
H     1.4258678   -4.2970438    5.0933350 
H     2.2907263   -5.5374818    3.1147264 
H     1.5572163   -4.8793851    0.8070154 
H     0.0159850   -2.9636854    0.4863529 
C    -3.1885237   -2.9705887    1.0117685 
C    -2.9239480   -1.7888939    0.3245410 
C    -3.7673625   -1.4097302   -0.7640878 
C    -4.8636348   -2.1767285   -1.1063815 
H    -2.5561571   -3.2872036    1.8463172 
H    -3.5522064   -0.4883606   -1.3027743 
H    -5.5070907   -1.8667210   -1.9364674 
C    -5.1605730   -3.3893297   -0.4176899 
C    -4.2915430   -3.7986431    0.6556953 
C    -4.5544280   -5.0281189    1.3292941 
C    -5.6267219   -5.8217469    0.9548415 
C    -6.4857956   -5.4152693   -0.1027158 
C    -6.2596239   -4.2227240   -0.7722760 
H    -3.8921642   -5.3368164    2.1458214 
H    -5.8188246   -6.7658951    1.4748846 
H    -7.3310583   -6.0510864   -0.3859791 
H    -6.9195553   -3.9105910   -1.5891851 
