124
Energy =
C     1.6322485    2.3645150    1.3972390 
C     2.3266394    2.2082637    0.1702287 
C     1.6725108    2.4477450   -1.0715859 
H     3.3377902    1.7807649    0.1674152 
Pd    0.6474514    0.8137110    0.0651703 
P    -0.4395621   -0.1577118   -1.7639821 
P    -0.1466548   -0.7461005    1.6736069 
H     0.7560460    3.0307434    1.3887998 
H     0.8566041    3.1856615   -1.0723616 
C     3.3912894    1.9230518    5.2929069 
C     3.9342704    1.2177273    4.2053113 
C     3.3617549    1.3313313    2.9350759 
C     2.2257443    2.1477885    2.7258631 
C     1.6695517    2.8219252    3.8365194 
C     2.2546046    2.7220934    5.1038822 
H     3.8496224    1.8431165    6.2838592 
H     4.8132300    0.5805935    4.3481482 
H     3.8008275    0.7760401    2.1011578 
H     0.7799860    3.4457652    3.6948613 
H     1.8192857    3.2680551    5.9469222 
C     3.5624162    1.9208709   -4.9005438 
C     3.8394171    1.0200439   -3.8583945 
C     3.2238026    1.1761762   -2.6126178 
C     2.3169990    2.2359699   -2.3828834 
C     2.0358062    3.1235047   -3.4433210 
C     2.6580671    2.9710883   -4.6886343 
H     4.0443094    1.7970521   -5.8758524 
H     4.5342690    0.1894631   -4.0211717 
H     3.4328682    0.4590469   -1.8108066 
H     1.3258611    3.9425530   -3.2874378 
H     2.4243278    3.6702894   -5.4978043 
Fe   -3.1613701    1.0563286   -0.0587726 
C    -2.1561558   -0.3372848   -1.1797062 
C    -2.5161336   -0.8983902    0.1153069 
C    -3.9485401   -0.8085000    0.2275226 
C    -4.4736546   -0.2104125   -0.9623338 
C    -3.3753769    0.0883203   -1.8302118 
C    -4.4414567    2.5780659    0.3920341 
C    -3.7411127    2.1553235    1.5699545 
C    -2.3345686    2.3307044    1.3402903 
C    -2.1712816    2.8644363    0.0198216 
C    -3.4706139    3.0151077   -0.5692080 
C    -1.6612631   -1.7126084    1.0637864 
H    -4.5301524   -1.1491376    1.0870284 
H    -5.5237813    0.0098973   -1.1621321 
H    -3.4412558    0.5633356   -2.8103602 
H    -5.5226118    2.5530754    0.2451758 
H    -4.2039906    1.7714134    2.4792447 
H    -1.5357159    2.1143805    2.0499657 
H    -1.2202461    3.1139429   -0.4519023 
H    -3.6891630    3.3819842   -1.5737343 
H    -2.2695630   -1.8863529    1.9672001 
C    -1.3141237   -3.0898717    0.4546820 
H    -0.5684951   -3.0092545   -0.3480436 
H    -0.9184545   -3.7754496    1.2188521 
H    -2.2298978   -3.5321873    0.0264843 
C     3.4304187   -3.6627487    2.4949649 
C     3.5325662   -2.5615475    1.6264931 
C     2.4283789   -1.7311557    1.4163890 
C     1.1914691   -1.9573797    2.0527270 
C     1.0759638   -3.0465573    2.9626877 
C     2.1996723   -3.8730890    3.1460274 
H     4.4784860   -2.3513331    1.1146038 
H     2.5137235   -0.8655164    0.7468023 
H     2.1100429   -4.7196196    3.8382864 
C    -1.5054366    0.3878150    5.9636311 
C    -2.4624431    0.3658511    4.9342685 
C    -2.0332988    0.0532441    3.6316382 
C    -0.6769718   -0.2021172    3.3552011 
C     0.2678262   -0.1343967    4.3996181 
C    -0.1424838    0.1327472    5.7184259 
H    -1.8320788    0.5929049    6.9905461 
H    -2.7702731    0.0044366    2.8244822 
H     1.3246352   -0.3407733    4.1990206 
C     4.5925590   -4.6004784    2.7261596 
H     4.7628454   -4.7659657    3.8044906 
H     4.3901326   -5.5895835    2.2749898 
H     5.5236082   -4.2106668    2.2836966 
C    -0.1603375   -3.3445547    3.7860054 
H    -0.0306339   -2.9591658    4.8138828 
H    -1.0716389   -2.8748072    3.3905101 
H    -0.3289266   -4.4325322    3.8551109 
C    -3.9174934    0.6729622    5.2141332 
H    -4.1108638    1.7593321    5.1288275 
H    -4.5838205    0.1586767    4.5004257 
H    -4.2065356    0.3693854    6.2340794 
C     0.8433702    0.1073779    6.8653176 
H     0.5154191   -0.6039590    7.6445757 
H     1.8490588   -0.1862804    6.5268263 
H     0.9229748    1.0997322    7.3444035 
C     1.3631605   -4.3157861   -2.8629178 
C     2.0624578   -3.3837653   -2.1171653 
C     1.4741870   -2.1260620   -1.8396656 
C     0.2034471   -1.7951253   -2.3028758 
H     1.7968493   -5.3007456   -3.0680982 
H     3.0559791   -3.6142170   -1.7203109 
H     2.0139956   -1.4016959   -1.2251584 
C    -0.5271428   -2.7262756   -3.1255528 
C     0.0711650   -4.0156716   -3.3885198 
C    -0.6396613   -4.9651113   -4.1803423 
C    -1.8821635   -4.6624286   -4.7110187 
C    -2.4598966   -3.3886181   -4.4742766 
C    -1.7994924   -2.4460527   -3.7014642 
H    -0.1785979   -5.9410240   -4.3679359 
H    -2.4162770   -5.3989665   -5.3198135 
H    -3.4348687   -3.1454666   -4.9091761 
H    -2.2559852   -1.4678622   -3.5426571 
C    -1.2156658    2.0311182   -3.3335764 
C    -0.5432002    0.8127407   -3.3179080 
C     0.1322380    0.3658345   -4.4929269 
C     0.0911226    1.1234521   -5.6494420 
H    -1.7257515    2.3775441   -2.4329260 
H     0.6881262   -0.5754541   -4.4786111 
H     0.6146658    0.7735820   -6.5454717 
C    -0.6046746    2.3660583   -5.6992139 
C    -1.2691997    2.8322159   -4.5077438 
C    -1.9441457    4.0891224   -4.5372824 
C    -1.9619942    4.8533038   -5.6922475 
C    -1.3084609    4.3920901   -6.8682493 
C    -0.6457058    3.1749569   -6.8717168 
H    -2.4437384    4.4456674   -3.6291738 
H    -2.4800646    5.8177914   -5.7047282 
H    -1.3318285    5.0062438   -7.7743970 
H    -0.1411985    2.8203644   -7.7771996 
