132
Energy =
C     1.2299352   -0.5950291   -3.3596478 
C     1.1013279    0.7892754   -3.0680690 
C     1.8693031    1.4002751   -2.0465864 
H     0.3090120    1.3627646   -3.5651025 
Pd    0.5523602   -0.2650695   -1.2169401 
P     0.2783087    0.7582241    0.8757497 
P    -0.5014482   -2.2624137   -0.5560111 
H     2.1956867   -1.0644354   -3.1201146 
H     2.7985239    0.8903250   -1.7531306 
C    -0.9867566   -2.5916991   -6.4645251 
C    -1.5951309   -1.5640602   -5.7228056 
C    -0.8832849   -0.9042902   -4.7163392 
C     0.4526327   -1.2624924   -4.4223306 
C     1.0552402   -2.2886281   -5.1830691 
C     0.3436993   -2.9449637   -6.1961839 
H    -1.5473426   -3.1104540   -7.2487497 
H    -2.6339491   -1.2834566   -5.9263723 
H    -1.3780529   -0.1268847   -4.1249836 
H     2.0929760   -2.5721756   -4.9749143 
H     0.8287765   -3.7378858   -6.7747769 
C     1.9196373    5.6039980   -1.1320122 
C     2.9081832    4.7468474   -0.6250655 
C     2.8639935    3.3776578   -0.9118156 
C     1.8254272    2.8319431   -1.7021600 
C     0.8178769    3.7040999   -2.1762634 
C     0.8741568    5.0742986   -1.9056921 
H     1.9591544    6.6776772   -0.9223149 
H     3.7247685    5.1472437   -0.0150304 
H     3.6470019    2.7169320   -0.5261299 
H    -0.0179361    3.3116961   -2.7636841 
H     0.0916083    5.7340840   -2.2941988 
Fe   -0.1271213   -0.9911065    3.9666670 
C    -0.5887928   -0.2412948    2.1336787 
C    -0.6569839   -1.6952477    2.1509025 
C    -1.6403910   -2.0642299    3.1389394 
C    -2.1490521   -0.8687907    3.7479591 
C    -1.5001401    0.2552923    3.1426341 
C     1.5064574   -2.0606004    4.5897576 
C     1.8545137   -0.6828558    4.4063951 
C     1.0116363    0.1073187    5.2591998 
C     0.1441443   -0.7865027    5.9741989 
C     0.4482412   -2.1272760    5.5582928 
C    -0.8164454    2.2220934    0.7345138 
C    -0.3713939    3.5512545    0.8546612 
C    -1.2758032    4.6239503    0.7677923 
C    -2.6338233    4.3423451    0.5039959 
C    -3.1095889    3.0164757    0.3634130 
C    -2.1816820    1.9712327    0.4815418 
C     1.8607049    1.2808926    1.6262460 
C     3.0410308    0.6445557    1.2034275 
C     4.2853111    0.9459606    1.7849849 
C     4.3158326    1.9204256    2.8094136 
C     3.1367734    2.5439541    3.2867728 
C     1.9150103    2.2066175    2.6858498 
C     0.0945031   -2.6194166    1.2283022 
H    -1.9201301   -3.0814595    3.4165583 
H    -2.8766612   -0.8266287    4.5604825 
H    -1.6725751    1.3072396    3.3751127 
H     1.9660629   -2.9082918    4.0782708 
H     2.6186514   -0.3019061    3.7287290 
H     1.0267368    1.1942559    5.3476249 
H    -0.6268635   -0.4979864    6.6909640 
H    -0.0518208   -3.0341805    5.9036668 
H     0.6877095    3.7696452    1.0191531 
H    -2.5397479    0.9386146    0.4076046 
H     2.9898152   -0.1137303    0.4116981 
H     0.9945037    2.6609567    3.0665794 
H     1.1501103   -2.2932397    1.2022997 
H    -0.5500198   -4.6533901   -0.7275496 
H    -2.4142551   -1.2839611    0.4282013 
C    -4.6520979   -2.8952868    0.1701656 
C    -3.1636776   -3.2526532   -0.0020147 
C    -2.3485128   -2.0062714   -0.4095068 
C    -2.9245549   -1.3074747   -1.6633408 
C    -4.4184568   -0.9881349   -1.4793911 
C    -5.2238915   -2.2404282   -1.0972669 
H    -4.7569255   -2.1976617    1.0246573 
H    -5.2234924   -3.8043669    0.4301562 
H    -3.0644918   -4.0399892   -0.7720144 
H    -2.7693087   -3.6706607    0.9395291 
H    -2.3523077   -0.3799614   -1.8556902 
H    -2.7914540   -1.9479528   -2.5535644 
H    -4.5304944   -0.2286111   -0.6815221 
H    -4.8179282   -0.5337710   -2.4042211 
H    -5.1893384   -2.9677504   -1.9325486 
H    -6.2872162   -1.9809882   -0.9483833 
C     1.6221950   -5.4739999   -2.2272957 
C     1.3235592   -4.0779217   -1.6524147 
C    -0.1946819   -3.8830166   -1.4388232 
C    -0.9646228   -4.0886877   -2.7602227 
C    -0.6587812   -5.4807233   -3.3466274 
C     0.8491234   -5.7141670   -3.5339197 
H     1.3356765   -6.2402302   -1.4798766 
H     2.7090650   -5.5854339   -2.3928519 
H     1.6790156   -3.3001993   -2.3538668 
H     1.8781844   -3.9268381   -0.7074274 
H    -2.0506561   -3.9948167   -2.5945805 
H    -0.6816631   -3.3083174   -3.4835970 
H    -1.0679809   -6.2565568   -2.6691378 
H    -1.1862594   -5.5909894   -4.3110723 
H     1.2270576   -5.0221002   -4.3094691 
H     1.0334109   -6.7384495   -3.9043554 
C     0.0514239   -4.0844035    1.6935801 
H     0.3630546   -4.1276139    2.7511821 
H    -0.9587906   -4.5192241    1.6241737 
H     0.7391987   -4.7187534    1.1132326 
C    -0.8376535    6.0528348    0.9840553 
H    -0.9412623    6.6530862    0.0622559 
H    -1.4694096    6.5364330    1.7489144 
H     0.2158951    6.0996948    1.3008695 
C    -4.5789104    2.7443415    0.1370827 
H    -5.1905757    3.5636834    0.5473693 
H    -4.8125204    2.6556113   -0.9406790 
H    -4.8825944    1.7998091    0.6179292 
O    -3.5197862    5.3977647    0.4641746 
C    -3.8419448    5.8883912   -0.8434576 
H    -4.5137915    6.7472222   -0.6969469 
H    -2.9323984    6.2194290   -1.3814651 
H    -4.3565055    5.1194840   -1.4508380 
C     5.5526775    0.2504173    1.3470220 
H     5.3321006   -0.7412371    0.9188503 
H     6.0847399    0.8342197    0.5720807 
H     6.2420008    0.1303249    2.1985752 
C     3.2161651    3.5160112    4.4393112 
H     3.7253365    4.4510722    4.1425191 
H     2.2110039    3.7809490    4.8049458 
H     3.8010499    3.0846316    5.2692500 
O     5.5056162    2.2143078    3.4351323 
C     6.3140053    3.2183648    2.8052352 
H     7.1973590    3.3523683    3.4468091 
H     6.6380356    2.9030228    1.7953660 
H     5.7678407    4.1777781    2.7242986 
