122
Energy =
C     0.6380189   -0.8075809   -3.5821287 
C     0.7793971    0.5895444   -3.4257308 
C     1.8056490    1.1470261   -2.6057832 
H     0.0071761    1.2592282   -3.8261825 
Pd    0.4704989   -0.1167508   -1.3592709 
P     1.0491923    0.8340766    0.7059859 
P    -0.9498099   -1.8316381   -0.5377693 
H     1.4997646   -1.4347790   -3.3107176 
H     2.7422776    0.5763555   -2.5111753 
C    -2.3576789   -2.8218111   -5.9162048 
C    -1.4880970   -3.5472268   -5.0879159 
C    -0.5018787   -2.8832302   -4.3513517 
C    -0.3799097   -1.4751047   -4.4095809 
C    -1.2482287   -0.7583492   -5.2678616 
C    -2.2241908   -1.4265770   -6.0134245 
H    -3.1271948   -3.3413092   -6.4962122 
H    -1.5750958   -4.6361705   -5.0174091 
H     0.1734769   -3.4560904   -3.7090970 
H    -1.1546203    0.3281179   -5.3652391 
H    -2.8811071   -0.8581042   -6.6799102 
C     2.1972637    5.3847105   -1.9536069 
C     0.9267768    4.7856714   -1.9136415 
C     0.7922499    3.4095774   -2.1281865 
C     1.9270665    2.6035135   -2.3761624 
C     3.1976616    3.2152109   -2.4099273 
C     3.3282656    4.5960637   -2.2089523 
H     2.3067479    6.4580885   -1.7717228 
H     0.0399215    5.3956813   -1.7103464 
H    -0.1973088    2.9400066   -2.0785882 
H     4.0875858    2.6031760   -2.5900012 
H     4.3205422    5.0566204   -2.2320690 
Fe   -3.4953494    2.1133336    1.4456566 
C    -1.6339256    1.6385086    0.7484332 
C    -2.3894786    0.4323631    1.0490896 
C    -3.6017459    0.4806302    0.2659583 
H    -4.3893700   -0.2725859    0.2822243 
C    -3.5877233    1.6705804   -0.5304231 
H    -4.3787310    1.9944140   -1.2089694 
C    -2.3819661    2.3845177   -0.2339340 
H    -2.0907307    3.3548999   -0.6417616 
C    -4.7038485    3.7421356    1.6752505 
H    -4.9608773    4.4505614    0.8854760 
C    -3.5767880    3.8359287    2.5574297 
H    -2.8445747    4.6454561    2.5699799 
C    -3.5940290    2.6887846    3.4201033 
H    -2.8828906    2.4786191    4.2204854 
C    -4.7298017    1.8843766    3.0668413 
H    -5.0199049    0.9377691    3.5264151 
C    -5.4164467    2.5370412    1.9909616 
H    -6.3069493    2.1659452    1.4802031 
C    -1.9361236   -0.7218253    1.8774490 
C    -1.2743141   -1.8360694    1.2816255 
C    -0.8421185   -2.9083065    2.0865332 
H    -0.3076119   -3.7486778    1.6325099 
C    -1.0688748   -2.8990418    3.4700438 
H    -0.7150497   -3.7318242    4.0852326 
C    -1.7310348   -1.8156359    4.0616822 
H    -1.9009946   -1.7981378    5.1423861 
C    -2.1565687   -0.7428855    3.2670926 
H    -2.6748617    0.1084602    3.7148362 
C     1.5045458   -0.4270307    1.9868077 
C     2.1917351   -1.5575438    1.5090182 
H     2.3614863   -1.6796443    0.4369771 
C     2.6542704   -2.5454023    2.3873621 
C     2.4234597   -2.4326205    3.7629498 
H     2.7702024   -3.2102787    4.4491311 
C     1.7214731   -1.3177750    4.2406049 
C     1.2779552   -0.3135504    3.3700485 
H     0.7438545    0.5338285    3.7916327 
C     2.6098383    1.8348151    0.7017988 
C     3.7961138    1.1822705    0.3209520 
H     3.7938756    0.1180880    0.0666687 
C     5.0043331    1.8865314    0.2448765 
C     5.0577695    3.2483919    0.5654817 
H     6.0013195    3.7960716    0.4988024 
C     3.8756432    3.9016564    0.9382209 
C     2.6586318    3.2085553    0.9984892 
H     1.7614221    3.7722716    1.2586199 
C    -0.2706862    2.0535782    1.2619664 
H     0.0250357    2.9137839    0.6320685 
C    -0.2367389    2.5007208    2.7355269 
H    -0.7934656    3.4456566    2.8260817 
H    -0.7369593    1.7609416    3.3769149 
H     0.7896948    2.6677912    3.1039824 
C     6.2206018    1.1749457   -0.3051788 
F     7.3687400    1.8031724    0.0080946 
F     6.2971397   -0.0996809    0.1414885 
F     6.1473079    1.1098477   -1.6665526 
C     3.9238926    5.3772081    1.2779155 
F     2.6898439    5.9383242    1.2562796 
F     4.4417595    5.5823945    2.5088111 
F     4.6974771    6.0571098    0.3971250 
C     3.3149147   -3.7882176    1.8346963 
F     4.2322803   -4.2921221    2.6824306 
F     2.3933749   -4.7641778    1.6109425 
F     3.9282865   -3.5426825    0.6488702 
C     1.4209785   -1.2261853    5.7224131 
F     0.6019306   -0.1858628    6.0085784 
F     0.8054488   -2.3567038    6.1569236 
F     2.5465971   -1.0800542    6.4515605 
C     1.0734295   -5.9021526   -1.6145424 
C     1.8213979   -4.7176467   -1.5702484 
C     1.1955760   -3.5120545   -1.2291830 
C    -0.1786077   -3.4675971   -0.9185712 
C    -0.9221480   -4.6653136   -0.9708631 
C    -0.2976019   -5.8714495   -1.3160528 
H     1.5561178   -6.8470882   -1.8837978 
H     2.8921071   -4.7286546   -1.7941467 
H     1.7780689   -2.5840611   -1.2284321 
H    -1.9947520   -4.6616878   -0.7619523 
H    -0.8886778   -6.7922380   -1.3557136 
C    -5.2251437   -2.0886262   -2.3481183 
C    -4.9156194   -2.8176434   -1.1879680 
C    -3.6312056   -2.7444038   -0.6326643 
C    -2.6430061   -1.9434221   -1.2445261 
C    -2.9674532   -1.1959389   -2.3886223 
C    -4.2511244   -1.2742851   -2.9438861 
H    -6.2300624   -2.1479550   -2.7789028 
H    -5.6794946   -3.4385148   -0.7083713 
H    -3.4103524   -3.2812912    0.2963890 
H    -2.2198181   -0.5318677   -2.8282815 
H    -4.4887423   -0.6918124   -3.8395529 
