110
Energy =
C     2.1392715    2.0435481    0.9930606 
C     2.5349832    2.1409639   -0.3633932 
C     1.8240709    2.9426662   -1.2839169 
H     3.3888114    1.5433130   -0.7070384 
Pd    0.5359833    1.1615091   -0.3591041 
P    -1.2782437    0.7533879   -1.9062512 
P    -0.0599621   -0.4531255    1.2067484 
H     1.4756744    2.8354403    1.3745798 
H     1.1810270    3.7258205   -0.8605040 
C     4.6028679    0.2634291    4.0336673 
C     4.5193477   -0.3447977    2.7691905 
C     3.7089884    0.2105141    1.7737571 
C     2.9537108    1.3779321    2.0274181 
C     3.0353307    1.9696812    3.3069346 
C     3.8611272    1.4242442    4.2976604 
H     5.2421279   -0.1695386    4.8099659 
H     5.0907901   -1.2547436    2.5583723 
H     3.6515541   -0.2737694    0.7943755 
H     2.4459236    2.8659582    3.5277226 
H     3.9044716    1.8983334    5.2827923 
C     3.0635886    3.7070762   -5.3308267 
C     3.5248701    2.5564813   -4.6688427 
C     3.1299385    2.2926939   -3.3544454 
C     2.2612643    3.1754121   -2.6676434 
C     1.8199450    4.3386093   -3.3423752 
C     2.2141302    4.5997827   -4.6597559 
H     3.3718396    3.9092169   -6.3615501 
H     4.1947491    1.8603116   -5.1841303 
H     3.4880224    1.3818520   -2.8634618 
H     1.1647025    5.0446095   -2.8206319 
H     1.8622291    5.5061943   -5.1629547 
Fe   -3.0119271   -2.5387421    1.0940930 
C    -1.8236427   -0.8884302    1.2151277 
C    -2.7319433   -0.8017905    0.0820210 
C    -4.0715553   -0.8767095    0.6195446 
C    -3.9990449   -1.0265700    2.0414914 
C    -2.6209665   -1.0482211    2.4159403 
C    -3.0923103   -4.0406471   -0.3021401 
C    -1.9572164   -4.2167366    0.5525975 
C    -2.4318284   -4.3258344    1.9052369 
C    -3.8624630   -4.2160873    1.8812781 
C    -4.2710803   -4.0369084    0.5167176 
C     0.1616717    0.1269609    2.9402899 
C     0.9772436   -0.5055499    3.8935715 
C     1.1014944    0.0333880    5.1809452 
C     0.4299383    1.2159720    5.5161634 
C    -0.3876416    1.8570716    4.5691818 
C    -0.5202252    1.3138566    3.2893385 
C     0.9085555   -2.0052440    1.0563469 
C     1.8302216   -2.1547110    0.0051836 
C     2.5578895   -3.3434307   -0.1383248 
C     2.3737498   -4.3853387    0.7821456 
C     1.4611416   -4.2428184    1.8424025 
C     0.7239302   -3.0622508    1.9711963 
C    -2.3788083   -0.7314167   -1.3935168 
H    -4.9989798   -0.8663789    0.0472957 
H    -4.8496146   -1.1430272    2.7152402 
H    -2.2267324   -1.1379588    3.4290240 
H    -3.0614154   -3.9295851   -1.3877491 
H    -0.9172365   -4.2611411    0.2283253 
H    -1.8232235   -4.4813326    2.7970370 
H    -4.5230703   -4.2432363    2.7497036 
H    -5.2964143   -3.9016156    0.1674287 
H     1.5541823   -1.3965290    3.6356303 
H    -1.1585416    1.8141424    2.5515702 
H     1.9747933   -1.3329573   -0.7038943 
H    -0.0119347   -2.9658007    2.7744331 
H    -1.6788168   -1.5641646   -1.5992941 
C    -3.6625017   -0.9498252   -2.2221145 
H    -4.0938551   -1.9261427   -1.9443776 
H    -4.4186737   -0.1820907   -1.9997201 
H    -3.4884048   -0.9504951   -3.3021485 
C     0.6842037    1.8658469    6.8565471 
F    -0.3559866    2.6283762    7.2571309 
F     0.9346597    0.9550868    7.8217063 
F     1.7742659    2.6831450    6.7854731 
H     1.7470580   -0.4539361    5.9165098 
H    -0.9130782    2.7779038    4.8382170 
H     3.2729165   -3.4616826   -0.9572487 
H     1.3258144   -5.0602239    2.5569034 
C     3.1091740   -5.6982244    0.6064652 
F     3.4525882   -6.2344845    1.7991702 
F     2.3279745   -6.6026684   -0.0326395 
F     4.2366976   -5.5477792   -0.1238567 
C    -0.5377878    0.2036565   -3.6055494 
C    -2.4318920    2.2780507   -2.0407208 
C     0.7043281   -0.6419898   -3.2394132 
H     1.1948829   -0.9916993   -4.1662551 
H     1.4363148   -0.0449273   -2.6671020 
H     0.4374395   -1.5337988   -2.6442436 
C    -1.5682211    3.5575302   -2.0708804 
H    -2.2361684    4.4350750   -2.1468715 
H    -0.9831147    3.6581996   -1.1415043 
H    -0.8754558    3.5853054   -2.9249474 
C    -1.4450040   -0.6424838   -4.5214466 
H    -0.8858314   -0.8437995   -5.4537278 
H    -1.7019370   -1.6198993   -4.0818012 
H    -2.3700075   -0.1147966   -4.8038270 
C    -0.0902915    1.4522100   -4.3884530 
H     0.5515032    1.1368327   -5.2304449 
H    -0.9450259    2.0029668   -4.8113670 
H     0.5004890    2.1372180   -3.7684186 
C    -3.3665397    2.2700176   -3.2702019 
H    -4.0223991    3.1585515   -3.2165725 
H    -2.8051077    2.3346864   -4.2154370 
H    -4.0148270    1.3838213   -3.3119632 
C    -3.2603843    2.3010324   -0.7339511 
H    -3.7897577    3.2687054   -0.6635896 
H    -4.0157424    1.5020624   -0.6956681 
H    -2.6136290    2.2014334    0.1573380 
