142
Energy =
C    -0.2584837    3.1577693    1.0099092 
C    -0.6071537    2.5464794    2.2362091 
C     0.3594010    1.8498369    3.0217709 
H    -1.6650258    2.4751749    2.5214208 
Pd    0.1743263    0.8728495    1.0343342 
P     1.0520088   -1.2121445    1.6246129 
P    -0.1057496    0.4361425   -1.2747259 
H     0.8087013    3.3519658    0.8300737 
H     1.4024190    2.1975438    2.9648819 
C    -2.9222330    5.2688278   -1.6272471 
C    -1.6169421    4.9505234   -2.0325349 
C    -0.7503899    4.2880038   -1.1577623 
C    -1.1817578    3.8981146    0.1319620 
C    -2.4925326    4.2451807    0.5349478 
C    -3.3487820    4.9294708   -0.3333514 
H    -3.5986880    5.7957538   -2.3083596 
H    -1.2686729    5.2241982   -3.0338749 
H     0.2665717    4.0484385   -1.4801984 
H    -2.8438698    3.9950123    1.5411846 
H    -4.3545183    5.2018281    0.0021129 
C    -0.6448081   -0.2499281    6.6449287 
C    -1.4885248   -0.3436823    5.5250059 
C    -1.1715029    0.3419760    4.3472177 
C     0.0013033    1.1272713    4.2620895 
C     0.8408907    1.2128612    5.3923204 
C     0.5144442    0.5359325    6.5753381 
H    -0.8819095   -0.7980705    7.5617515 
H    -2.3940202   -0.9585914    5.5714047 
H    -1.8193149    0.2506109    3.4673687 
H     1.7577624    1.8091252    5.3395063 
H     1.1793209    0.6051095    7.4415993 
Fe   -3.0455746   -3.3901416    0.4496518 
C    -1.5356328   -2.1498561    1.0663946 
C    -1.6332318   -2.1543921   -0.3845922 
C    -2.9763628   -1.7527752   -0.7259732 
H    -3.3642384   -1.6641567   -1.7412329 
C    -3.6929337   -1.4722230    0.4815143 
H    -4.7376487   -1.1635589    0.5477869 
C    -2.8114472   -1.7181664    1.5836138 
H    -3.0667838   -1.6410064    2.6426633 
C    -2.6171897   -5.4049547    0.4378016 
H    -1.6393122   -5.8874739    0.4002301 
C    -3.4274885   -5.0494214   -0.6930993 
H    -3.1652381   -5.1821938   -1.7444085 
C    -4.6457303   -4.4753979   -0.2015408 
H    -5.4599213   -4.0802742   -0.8118688 
C    -4.5881731   -4.4723312    1.2326070 
H    -5.3541780   -4.0794827    1.9038962 
C    -3.3340753   -5.0451193    1.6281973 
H    -2.9966278   -5.1883666    2.6564436 
C    -0.5260724   -2.3749169   -1.3585881 
C     0.2391070   -1.2825843   -1.8645129 
C     1.2848009   -1.5257237   -2.7770300 
H     1.8936101   -0.6913195   -3.1388488 
C     1.5720599   -2.8288790   -3.2069237 
H     2.3965914   -3.0020933   -3.9052044 
C     0.8166018   -3.9052789   -2.7250313 
H     1.0439224   -4.9261821   -3.0461290 
C    -0.2184607   -3.6717038   -1.8103067 
H    -0.8156711   -4.5009009   -1.4239282 
C     1.0359051    1.5406415   -2.2054777 
C     2.0669183    2.1898167   -1.4973671 
H     2.1917211    1.9897247   -0.4257257 
C     2.9145873    3.1231092   -2.1100748 
C     2.7127792    3.3998666   -3.4819315 
C     1.7081368    2.7456579   -4.2343794 
C     0.8757631    1.8255795   -3.5745661 
H     0.0882547    1.3349771   -4.1528861 
C    -1.7890967    0.7640876   -1.9230884 
C    -2.7634244    1.3002571   -1.0650102 
H    -2.5044081    1.5108134   -0.0229808 
C    -4.0815657    1.4999614   -1.4994819 
C    -4.3999081    1.1715126   -2.8364514 
C    -3.4514262    0.5947168   -3.7146820 
C    -2.1493079    0.3857419   -3.2311495 
H    -1.4264957   -0.1273998   -3.8756258 
C     2.3581939   -1.8180435    0.4549545 
C     2.5996541   -3.1657456    0.1324991 
H     1.9760927   -3.9642558    0.5252430 
C     3.6443923   -3.5068374   -0.7354281 
C     4.4872645   -2.5251216   -1.2737392 
H     5.3022045   -2.7975604   -1.9497854 
C     4.2526647   -1.1846068   -0.9508045 
C     3.1939530   -0.8331813   -0.1022139 
H     3.0134833    0.2233412    0.1093547 
C     2.0230917   -1.2103266    3.2028327 
C     1.6876988   -1.9752431    4.3340315 
H     0.8224284   -2.6399644    4.3417979 
C     2.4524548   -1.8764839    5.5048367 
C     3.5477639   -1.0056923    5.5776490 
H     4.1279206   -0.9138497    6.4993943 
C     3.8654913   -0.2252404    4.4594862 
C     3.1186413   -0.3320189    3.2795584 
H     3.3946110    0.2936945    2.4250542 
C    -0.3311949   -2.4500814    1.9364901 
H    -0.6178546   -2.1182920    2.9523937 
C     0.0601248   -3.9385069    2.0079431 
H    -0.7299790   -4.4805232    2.5492063 
H     0.1230402   -4.3709604    0.9990559 
H     1.0153045   -4.1023421    2.5350745 
C     2.0967052   -2.7169193    6.7138970 
F     2.1745220   -1.9908042    7.8556892 
F     0.8372451   -3.2113402    6.6290687 
F     2.9368373   -3.7666400    6.8485695 
C     4.9392067    0.8371055    4.5365615 
F     5.6567986    0.9059180    3.3920457 
F     4.3682045    2.0648890    4.7146840 
F     5.7907323    0.6356488    5.5590496 
C     3.8636692   -4.9527970   -1.1283662 
F     2.8523687   -5.7496225   -0.7058560 
F     5.0136996   -5.4406647   -0.6180179 
F     3.9394213   -5.0768534   -2.4788124 
C     5.0804380   -0.0964152   -1.5962907 
F     4.4920787    0.3485597   -2.7400373 
F     5.2129108    0.9767306   -0.7766475 
F     6.3149792   -0.5258242   -1.9232145 
C     4.0232261    3.8167591   -1.3577703 
H     3.9090630    4.9140783   -1.3966121 
H     4.0434692    3.5038514   -0.3017917 
H     5.0008671    3.5784036   -1.8096145 
C     1.5508925    3.0193000   -5.7119947 
H     0.8746245    3.8757577   -5.8940258 
H     2.5256991    3.2627507   -6.1653853 
H     1.1223568    2.1465235   -6.2310954 
C    -5.1682850    1.9809026   -0.5689640 
H    -4.7867173    2.0955886    0.4579915 
H    -5.5772154    2.9542780   -0.8914176 
H    -6.0121517    1.2689252   -0.5626518 
C    -3.8507963    0.1810186   -5.1117579 
H    -3.2029246   -0.6288248   -5.4857232 
H    -4.8996490   -0.1575386   -5.1306573 
H    -3.7645031    1.0266425   -5.8200169 
O     3.5778806    4.2768332   -4.0912950 
O    -5.7059006    1.3276815   -3.2475757 
C     3.0933409    5.6114603   -4.3006401 
H     3.9270619    6.1758197   -4.7435328 
H     2.2306495    5.6301215   -4.9925335 
H     2.7970652    6.0802416   -3.3427876 
C    -5.9904717    2.5450349   -3.9514393 
H    -5.4427500    2.5956069   -4.9113701 
H    -7.0728637    2.5444076   -4.1482744 
H    -5.7246350    3.4294737   -3.3408710 
