142
Energy =
C     2.8328606    1.8464243   -1.4116392 
C     3.2806061    0.5173438   -1.1443301 
C     2.7936225   -0.5912250   -1.8714017 
H     3.9151422    0.3414723   -0.2665586 
Pd    1.1093061    0.5596766   -0.7773471 
P    -0.0295038   -1.2940678    0.1321727 
P    -0.4591658    2.1842046   -0.2099460 
H     2.5408247    2.0879953   -2.4444421 
H     2.3185944   -0.3798119   -2.8423241 
C     4.0428445    5.2093287    0.9965655 
C     3.8698733    3.9488677    1.5918399 
C     3.4883388    2.8529184    0.8117326 
C     3.2547485    2.9909067   -0.5773084 
C     3.4354351    4.2630048   -1.1610937 
C     3.8317844    5.3581900   -0.3816532 
H     4.3256693    6.0728193    1.6058415 
H     4.0200242    3.8213768    2.6681941 
H     3.3600524    1.8744060    1.2887544 
H     3.2644285    4.3951467   -2.2337984 
H     3.9622101    6.3376212   -0.8527413 
C     3.8931099   -4.7159584   -1.3648274 
C     3.1011664   -4.3121645   -2.4499770 
C     2.7625955   -2.9643310   -2.6030764 
C     3.1873521   -1.9922791   -1.6669158 
C     3.9952699   -2.4141935   -0.5853078 
C     4.3466969   -3.7586874   -0.4427396 
H     4.1667695   -5.7692549   -1.2433949 
H     2.7535000   -5.0469001   -3.1836293 
H     2.1656198   -2.6527218   -3.4652209 
H     4.3485140   -1.6918743    0.1552112 
H     4.9762522   -4.0640600    0.3974009 
Fe   -4.5160961    0.1870114   -1.9452698 
C    -2.5617651    0.7661137   -1.6143552 
C    -2.9179733   -0.3663922   -0.7758762 
C    -3.3578221   -1.4284361   -1.6506144 
H    -3.6931160   -2.4104469   -1.3170511 
C    -3.2496887   -0.9840281   -3.0061634 
H    -3.5196830   -1.5597479   -3.8929347 
C    -2.7699080    0.3648720   -2.9858038 
H    -2.6095472    1.0043096   -3.8573330 
C    -5.8290360    1.7366568   -2.2831208 
H    -5.5908023    2.7688169   -2.5427360 
C    -6.0071700    1.2115248   -0.9592735 
H    -5.9351455    1.7765291   -0.0279440 
C    -6.3340767   -0.1821691   -1.0766484 
H    -6.5258006   -0.8744674   -0.2547563 
C    -6.3563422   -0.5153710   -2.4710991 
H    -6.5471973   -1.5051316   -2.8902291 
C    -6.0420426    0.6700301   -3.2163114 
H    -5.9588498    0.7415398   -4.3023895 
C    -2.7282732   -0.5355249    0.6922346 
C    -1.4800233   -0.9630910    1.2358992 
C    -1.3479579   -1.1253877    2.6301593 
H    -0.3850514   -1.4263210    3.0535293 
C    -2.4384333   -0.9123026    3.4849385 
H    -2.3152407   -1.0409543    4.5649671 
C    -3.6776389   -0.5364338    2.9530287 
H    -4.5344007   -0.3703823    3.6121511 
C    -3.8089247   -0.3422767    1.5722760 
H    -4.7629668   -0.0258481    1.1457897 
C     1.2159944   -2.1007357    1.2270115 
C     2.1024068   -1.2759549    1.9529551 
H     2.0363471   -0.1874014    1.8478701 
C     3.0756822   -1.8166963    2.8058664 
C     3.1423829   -3.2246063    2.9339051 
C     2.2751267   -4.0782980    2.2165327 
C     1.3255818   -3.4951179    1.3590573 
H     0.6727438   -4.1565547    0.7833601 
C    -0.6177513   -2.5861475   -1.0133442 
C    -1.3390288   -3.7046844   -0.5467684 
H    -1.5838559   -3.7946160    0.5178740 
C    -1.7888893   -4.6913964   -1.4360072 
C    -1.5122984   -4.5256821   -2.8160882 
C    -0.8369780   -3.3893260   -3.3139148 
C    -0.3954053   -2.4298385   -2.3884263 
H     0.0895948   -1.5167628   -2.7505636 
C    -0.7971570    2.2027210    1.6026589 
C    -2.0535340    2.4196478    2.1940146 
H    -2.9456841    2.5603032    1.5892844 
C    -2.1817899    2.4351547    3.5887782 
C    -1.0685752    2.2403757    4.4172110 
H    -1.1763090    2.2428477    5.5052909 
C     0.1832301    2.0247981    3.8287056 
C     0.3200372    2.0087222    2.4346824 
H     1.3065238    1.8568296    1.9898843 
C     0.0515982    3.9362918   -0.5230174 
C     0.1996413    4.3652366   -1.8555710 
H     0.0437753    3.6743915   -2.6909344 
C     0.5524965    5.6906245   -2.1412205 
C     0.7983949    6.6008036   -1.1058250 
H     1.0902750    7.6297644   -1.3310964 
C     0.7024927    6.1603270    0.2206382 
C     0.3230940    4.8438923    0.5160779 
H     0.2542940    4.5372616    1.5619457 
C    -2.0406733    2.1430090   -1.2457143 
H    -1.6045503    2.5310748   -2.1838070 
C    -3.1079332    3.1655972   -0.7998384 
H    -3.6945692    3.4668993   -1.6800300 
H    -3.8076540    2.7133796   -0.0832211 
H    -2.6592851    4.0735002   -0.3612010 
C     0.7759705    6.0992206   -3.5805620 
F    -0.0596789    5.4424604   -4.4199716 
F     0.6043794    7.4221020   -3.7654383 
F     2.0456447    5.7967738   -3.9734349 
C     1.0048694    7.1277298    1.3464855 
F     1.3066783    6.4765645    2.4949772 
F     2.0583261    7.9220216    1.0358698 
F    -0.0474677    7.9369192    1.6015687 
C    -3.5374392    2.6702737    4.2218923 
F    -3.6230257    3.9047737    4.7619979 
F    -4.5429813    2.5473948    3.3199232 
F    -3.7705884    1.7787777    5.2168411 
C     1.3757412    1.6994243    4.6964595 
F     2.5419173    2.0881744    4.1115432 
F     1.3048806    2.2834836    5.9064578 
F     1.4670518    0.3565826    4.8974713 
C     4.0352881   -0.9510680    3.5859432 
H     5.0830086   -1.2277252    3.3746724 
H     3.8993176    0.1140863    3.3469407 
H     3.8830350   -1.0825615    4.6707958 
C     2.3606053   -5.5782283    2.3686486 
H     2.6999531   -5.8488238    3.3817476 
H     1.3824051   -6.0503344    2.1812745 
H     3.0774398   -6.0101747    1.6445030 
C    -2.5787985   -5.8899678   -0.9667963 
H    -1.9889164   -6.8201499   -1.0623719 
H    -2.8729770   -5.7833959    0.0897277 
H    -3.4839857   -6.0249557   -1.5827713 
C    -0.6341012   -3.1970020   -4.7979529 
H     0.3130090   -3.6562199   -5.1408868 
H    -1.4520238   -3.6689747   -5.3663513 
H    -0.5919555   -2.1246286   -5.0517868 
O     4.0389361   -3.7398477    3.8434427 
O    -2.0130400   -5.4615632   -3.6941146 
C     5.2633755   -4.2724423    3.3251991 
H     5.8588474   -4.5817931    4.1967779 
H     5.0879305   -5.1505406    2.6758579 
H     5.8224525   -3.5057658    2.7546223 
C    -1.0935184   -6.4784741   -4.1161524 
H    -1.6545058   -7.1443664   -4.7884752 
H    -0.2334352   -6.0459586   -4.6621912 
H    -0.7159853   -7.0583003   -3.2525017 
