132
Energy =
C     2.2619427   -2.1633997    0.2009630 
C     2.0001861   -2.2528449    1.5953983 
C     0.8466338   -2.9077758    2.0927998 
H     2.6327251   -1.6874048    2.2902827 
Pd    0.3014242   -1.1691712    0.6993981 
P    -1.7336334   -0.3730208    1.5434063 
P     0.3478663    0.1924056   -1.1906060 
H     1.8495632   -2.9583555   -0.4358132 
H     0.3655974   -3.6404857    1.4267860 
C     5.6542044   -0.1569969   -1.5287864 
C     4.9228355   -1.0963292   -2.2702670 
C     3.8088493   -1.7275183   -1.7023143 
C     3.4049054   -1.4334629   -0.3800333 
C     4.1300892   -0.4553326    0.3407811 
C     5.2456479    0.1686966   -0.2246199 
H     6.5311966    0.3299336   -1.9669816 
H     5.2253300   -1.3483590   -3.2920962 
H     3.2466687   -2.4660001   -2.2838145 
H     3.8135148   -0.1678751    1.3485480 
H     5.7935347    0.9228347    0.3494620 
C    -0.1672108   -3.4692141    6.2433331 
C    -0.8423926   -4.1743686    5.2354867 
C    -0.4969421   -3.9829334    3.8925994 
C     0.5174783   -3.0691678    3.5200085 
C     1.1900366   -2.3688137    4.5492231 
C     0.8576471   -2.5750849    5.8923251 
H    -0.4283231   -3.6225464    7.2952464 
H    -1.6321237   -4.8862648    5.4970569 
H    -1.0113014   -4.5569518    3.1149563 
H     1.9806065   -1.6531819    4.3017460 
H     1.4004090   -2.0324397    6.6732294 
Fe   -1.7596662    3.0009606   -1.7971918 
C    -1.2191653    1.0664194   -1.5356704 
C    -2.2072962    1.4695842   -0.5456646 
C    -3.3813574    1.9004175   -1.2661357 
C    -3.1331253    1.7710608   -2.6707492 
C    -1.8078007    1.2626059   -2.8447783 
C    -2.1468649    4.8727959   -1.0973880 
C    -0.8267077    4.4552986   -0.7132397 
C    -0.0832621    4.1781448   -1.9106824 
C    -0.9442050    4.4141045   -3.0325952 
C    -2.2202974    4.8436047   -2.5321298 
C     0.6418115   -0.7247013   -2.7464295 
C     0.4029934   -2.1114797   -2.7428602 
C     0.5744471   -2.8931398   -3.8972204 
C     0.9900089   -2.2424845   -5.0817730 
C     1.2214101   -0.8465635   -5.1248875 
C     1.0284472   -0.1011809   -3.9509876 
C     1.6593596    1.4461132   -0.9272140 
C     2.6953178    1.7437120   -1.8277514 
C     3.6348411    2.7505433   -1.5430222 
C     3.5264797    3.4492117   -0.3201280 
C     2.5303794    3.1304005    0.6329193 
C     1.6123798    2.1219710    0.3092945 
C    -2.0757813    1.4013654    0.9573940 
H    -4.3000635    2.2854133   -0.8227364 
H    -3.8232419    2.0458623   -3.4702669 
H    -1.3256951    1.0451788   -3.7975467 
H    -2.9578808    5.1522836   -0.4220446 
H    -0.4516334    4.3600245    0.3076345 
H     0.9482532    3.8267975   -1.9542584 
H    -0.6824583    4.2740898   -4.0829937 
H    -3.0980156    5.0858994   -3.1340650 
H     0.0828405   -2.5978987   -1.8135749 
H     1.1793487    0.9820914   -3.9903275 
H     2.8134086    1.1704353   -2.7492295 
H     0.8529747    1.8464542    1.0504705 
H    -1.1347111    1.9071083    1.2370463 
H    -1.2055385   -1.2553071    3.6773935 
H    -4.1021628   -0.9522544    1.4924066 
C    -4.1936920   -3.7735987    1.3828969 
C    -3.0291008   -2.8339760    1.7397036 
C    -3.1950924   -1.4426098    1.0862765 
C    -3.3415030   -1.5978090   -0.4465530 
C    -4.5001977   -2.5452968   -0.8065041 
C    -4.3470300   -3.9202266   -0.1387789 
H    -5.1309794   -3.3692395    1.8128114 
H    -4.0298329   -4.7590910    1.8557197 
H    -2.0808961   -3.2703931    1.3688687 
H    -2.9299490   -2.7525077    2.8353340 
H    -3.4978576   -0.6204722   -0.9268774 
H    -2.3905005   -1.9993280   -0.8520490 
H    -5.4551851   -2.0852565   -0.4841094 
H    -4.5575804   -2.6497794   -1.9050191 
H    -3.4492252   -4.4262570   -0.5473217 
H    -5.2107295   -4.5654712   -0.3791216 
C    -2.7639174   -0.2286547    5.6976486 
C    -3.0141697   -0.2085866    4.1774571 
C    -1.6713726   -0.2854965    3.4158331 
C    -0.6814592    0.8215219    3.8556343 
C    -0.4931560    0.8447987    5.3835167 
C    -1.8380846    0.9222742    6.1231719 
H    -2.3013418   -1.1960557    5.9758965 
H    -3.7294855   -0.1683500    6.2310618 
H    -3.5616078    0.7128056    3.9164638 
H    -3.6652602   -1.0535656    3.8940326 
H     0.2921707    0.6648528    3.3504635 
H    -1.0538491    1.8119467    3.5311004 
H     0.0322633   -0.0756536    5.6927134 
H     0.1557644    1.6953727    5.6608528 
H    -2.3310032    1.8898377    5.9004536 
H    -1.6714942    0.8981119    7.2149571 
C    -3.2360634    2.1229605    1.6619172 
H    -3.3524533    3.1270347    1.2185278 
H    -4.1913709    1.5842117    1.5455563 
H    -3.0408180    2.2529023    2.7361029 
C     0.3519504   -4.3872092   -3.8778727 
H    -0.6663487   -4.6461079   -4.2238455 
H     1.0655960   -4.8926769   -4.5489709 
H     0.4665958   -4.7925467   -2.8589264 
C     1.6787645   -0.1975832   -6.4099275 
H     0.8508196   -0.1252902   -7.1394780 
H     2.0568301    0.8216052   -6.2290303 
H     2.4716412   -0.7989187   -6.8852410 
O     1.2499508   -2.9859817   -6.2101315 
C     0.1313938   -3.2503442   -7.0697417 
H     0.5237699   -3.8347310   -7.9150123 
H    -0.6495840   -3.8359441   -6.5493195 
H    -0.3148601   -2.3106855   -7.4464211 
C     4.7597006    3.0687681   -2.4982820 
H     5.7103925    3.1843552   -1.9516509 
H     4.8721435    2.2747760   -3.2535450 
H     4.5762700    4.0205666   -3.0305607 
C     2.4798661    3.8477171    1.9612243 
H     3.4978798    4.0495218    2.3331055 
H     1.9684881    4.8247582    1.8696190 
H     1.9301938    3.2546113    2.7113043 
O     4.4808094    4.3914554   -0.0056574 
C     4.1607853    5.7448860   -0.3598197 
H     5.0211592    6.3578581   -0.0529048 
H     4.0047087    5.8475876   -1.4503771 
H     3.2524069    6.0950837    0.1661048 
