104
Energy =
C     0.7848967    0.5763157    3.0298431 
C     2.0888077    0.1454624    2.6717110 
C     2.9196316    0.9121140    1.8227107 
H     2.4297483   -0.8442042    2.9996874 
Pd    0.9227143    0.2791056    0.7853172 
P     1.4205334    0.2493481   -1.5425573 
P    -1.4125705    0.1014193    0.5560781 
H     0.5740192    1.6538319    2.9545270 
H     2.6721684    1.9796148    1.7222573 
C    -1.7627454   -1.4595307    5.8383051 
C    -1.8878408   -0.0802666    5.6219970 
C    -1.0627142    0.5636140    4.6915639 
C    -0.0893697   -0.1566463    3.9639609 
C     0.0320205   -1.5459544    4.2018803 
C    -0.7968025   -2.1894669    5.1243700 
H    -2.4096235   -1.9657821    6.5621453 
H    -2.6331652    0.4994474    6.1762365 
H    -1.1668637    1.6410450    4.5243047 
H     0.7767730   -2.1328707    3.6545922 
H    -0.6924059   -3.2669732    5.2884035 
C     7.0221301    0.0087808    0.8797587 
C     6.1636885   -1.0209278    1.3002084 
C     4.8286783   -0.7450417    1.6102410 
C     4.3155066    0.5695119    1.5018270 
C     5.1991785    1.5983042    1.0979478 
C     6.5357978    1.3214275    0.7877493 
H     8.0662388   -0.2108413    0.6349789 
H     6.5390982   -2.0459051    1.3861748 
H     4.1776770   -1.5639681    1.9328003 
H     4.8316053    2.6283807    1.0349448 
H     7.2012424    2.1338679    0.4783612 
Fe   -3.2964574    0.0129047   -2.5811784 
C    -2.0178828    0.6157092   -1.0913352 
C    -1.2945386    0.4181200   -2.3376331 
C    -1.8986204    1.2741140   -3.3264469 
C    -2.9647352    2.0104264   -2.7089930 
C    -3.0525540    1.6003084   -1.3396439 
C    -3.9980374   -1.9132241   -2.3997030 
C    -5.0274980   -0.9633013   -2.0798389 
C    -5.2279060   -0.1243243   -3.2248883 
C    -4.3226369   -0.5527157   -4.2526072 
C    -3.5670798   -1.6603097   -3.7440146 
C    -2.2916579    1.2920941    1.6527570 
C    -1.8996999    2.6470640    1.5659848 
C    -2.5207666    3.6180931    2.3594165 
C    -3.5447362    3.2500460    3.2495225 
C    -3.9284905    1.9068939    3.3489102 
C    -3.2983474    0.9266869    2.5647551 
C    -2.0756630   -1.5586811    0.9566568 
C    -1.1872178   -2.5776802    1.3478320 
C    -1.6701198   -3.8566799    1.6567189 
C    -3.0451910   -4.1224448    1.5831814 
C    -3.9370836   -3.1106639    1.1906012 
C    -3.4546564   -1.8346215    0.8725743 
C    -0.0707569   -0.4421220   -2.5260071 
H    -1.6037402    1.3356006   -4.3759063 
H    -3.6259503    2.7216237   -3.2073309 
H    -3.7640527    1.9691904   -0.5998090 
H    -3.6107916   -2.6856986   -1.7340394 
H    -5.5756340   -0.8899366   -1.1394725 
H    -5.9274531    0.7108284   -3.2937883 
H    -4.2126235   -0.1001722   -5.2398808 
H    -2.7962389   -2.2072269   -4.2900251 
H    -1.1111113    2.9406656    0.8649561 
H    -3.5819493   -0.1213186    2.6888946 
H    -0.1133899   -2.3615495    1.3940641 
H    -4.1430953   -1.0508940    0.5450366 
H    -2.2093486    4.6648579    2.2807813 
H    -4.7112964    1.6084649    4.0537801 
H    -0.9722674   -4.6451111    1.9568329 
H    -5.0100940   -3.3188800    1.1248600 
C     2.8576098   -0.9296783   -2.0841735 
C     1.6833647    2.0497224   -2.1771566 
C     4.2379703   -0.2513659   -1.9560488 
H     5.0131249   -1.0346858   -2.0359797 
H     4.4168517    0.4703416   -2.7680791 
H     4.3775881    0.2507725   -0.9893909 
C     1.6460761    2.1426571   -3.7145953 
H     1.7846429    3.1973983   -4.0159944 
H     2.4571431    1.5572239   -4.1789705 
H     0.6840411    1.8057044   -4.1315514 
C     2.8294637   -2.1172166   -1.0901412 
H     3.6437843   -2.8193334   -1.3472171 
H     2.9996510   -1.7609551   -0.0609554 
H     1.8833484   -2.6774987   -1.1058467 
C     2.7188801   -1.4269572   -3.5410002 
H     3.6020321   -2.0475955   -3.7795859 
H     1.8299634   -2.0526146   -3.7116390 
H     2.7010610   -0.5918377   -4.2606188 
C     0.5692784    2.9212730   -1.5452003 
H     0.7079959    3.9643440   -1.8841119 
H    -0.4466819    2.6107804   -1.8195995 
H     0.6574595    2.9110735   -0.4431409 
C     3.0163687    2.6282223   -1.6495861 
H     2.9799903    3.7277664   -1.7535278 
H     3.1605243    2.3957185   -0.5829693 
H     3.8947345    2.2746309   -2.2040807 
H    -4.0344684    4.0099211    3.8670851 
H    -3.4240901   -5.1203437    1.8269347 
H     0.2150540   -0.3907371   -3.5904249 
C    -0.3532029   -1.9109051   -2.1512326 
H    -1.3125318   -2.2019173   -2.6007276 
H     0.4231578   -2.5979715   -2.5156307 
H    -0.4468680   -2.0452851   -1.0627433 
