142
Energy =
C     2.7070961    1.7290762   -1.5705286 
C     3.1567225    0.4937573   -1.0381145 
C     2.7036067   -0.7493960   -1.5421015 
H     3.7893013    0.5062910   -0.1428746 
Pd    0.9787732    0.5126143   -0.6975323 
P    -0.2408732   -1.3561827    0.1070637 
P    -0.4551412    2.2124775    0.0017139 
H     2.3259344    1.7273884   -2.6028177 
H     2.2959478   -0.7528271   -2.5631468 
C     4.0209497    5.5861015   -0.1835967 
C     4.1102036    4.4740325    0.6709998 
C     3.6930856    3.2136273    0.2318497 
C     3.1627112    3.0368450   -1.0692768 
C     3.0928777    4.1622790   -1.9189176 
C     3.5193334    5.4225726   -1.4823198 
H     4.3366842    6.5733642    0.1662562 
H     4.4964260    4.5902174    1.6879080 
H     3.7775005    2.3617202    0.9139862 
H     2.7066205    4.0474654   -2.9363266 
H     3.4500652    6.2772156   -2.1627111 
C     4.1176806   -4.5954512   -0.2387972 
C     3.3399216   -4.4751014   -1.3993559 
C     2.8730424   -3.2190432   -1.8026268 
C     3.1598253   -2.0584507   -1.0478537 
C     3.9251389   -2.2007492    0.1336565 
C     4.4069102   -3.4520192    0.5241620 
H     4.4988615   -5.5742771    0.0698193 
H     3.1084934   -5.3595414   -2.0019129 
H     2.2856691   -3.1302400   -2.7212851 
H     4.1489075   -1.3295047    0.7559967 
H     5.0109123   -3.5365913    1.4320426 
Fe   -4.3137860    0.5271622   -2.3481789 
C    -2.5588259    1.0292445   -1.4652575 
C    -2.9541867   -0.3059466   -1.0605406 
C    -3.1076049   -1.0950072   -2.2586223 
H    -3.4035687   -2.1446491   -2.2831871 
C    -2.7671528   -0.2803500   -3.3868624 
H    -2.8016725   -0.5913226   -4.4325818 
C    -2.4263934    1.0255381   -2.9040710 
H    -2.1643136    1.8911659   -3.5180024 
C    -5.5821862    2.1315585   -2.4373170 
H    -5.3161069    3.1806599   -2.2930448 
C    -6.0104219    1.2148725   -1.4187290 
H    -6.1388563    1.4473019   -0.3601465 
C    -6.2531298   -0.0575457   -2.0398909 
H    -6.5811248   -0.9701300   -1.5386710 
C    -5.9796701    0.0749414   -3.4412785 
H    -6.0461445   -0.7207076   -4.1855229 
C    -5.5644368    1.4265455   -3.6870056 
H    -5.2631355    1.8391340   -4.6517024 
C    -3.0345848   -0.8160111    0.3334993 
C    -1.8614909   -1.2533525    1.0121174 
C    -1.9638274   -1.7246765    2.3379480 
H    -1.0683773   -2.0525798    2.8717716 
C    -3.2042653   -1.7825547    2.9868178 
H    -3.2552416   -2.1372818    4.0199278 
C    -4.3628861   -1.3753159    2.3153759 
H    -5.3367356   -1.4225546    2.8130720 
C    -4.2704904   -0.8974055    1.0018924 
H    -5.1629651   -0.5709924    0.4635849 
C     0.8473790   -2.1542288    1.3549846 
C     1.0446497   -3.5446070    1.4205273 
H     0.6236617   -4.1985336    0.6518894 
C     1.7887857   -4.1204095    2.4623294 
C     2.3468735   -3.2675970    3.4422717 
C     2.1759248   -1.8638909    3.3969797 
C     1.4264625   -1.3249071    2.3369814 
H     1.2683790   -0.2400258    2.2963906 
C    -0.6264569   -2.6077503   -1.1745506 
C    -1.3660067   -3.7637990   -0.8522515 
H    -1.7055090   -3.9290570    0.1766088 
C    -1.7124757   -4.6991105   -1.8399538 
C    -1.3134645   -4.4415919   -3.1748878 
C    -0.6160748   -3.2655086   -3.5335919 
C    -0.2830856   -2.3610643   -2.5131103 
H     0.2081041   -1.4180266   -2.7754324 
C    -0.2791727    2.1527012    1.8350520 
C     0.9807626    2.5575984    2.3216457 
H     1.7352039    2.9495316    1.6316562 
C     1.2877213    2.4583563    3.6837480 
C     0.3467798    1.9492229    4.5865520 
H     0.5787394    1.8845374    5.6524701 
C    -0.8930486    1.5122634    4.0997246 
C    -1.2116883    1.6029655    2.7359594 
H    -2.1798137    1.2354480    2.3976898 
C    -0.0400754    3.9603768   -0.4387414 
C     0.1706715    5.0032713    0.4745867 
H     0.1695216    4.8213847    1.5525988 
C     0.3664429    6.3161743    0.0116320 
C     0.3177900    6.6121061   -1.3534417 
H     0.4466169    7.6398855   -1.7013496 
C     0.1067020    5.5679354   -2.2680220 
C    -0.0446657    4.2533192   -1.8192317 
H    -0.1778168    3.4505388   -2.5528036 
C    -2.2728893    2.2268914   -0.6027374 
H    -2.2188895    3.0844903   -1.2933550 
C    -3.3151814    2.5929775    0.4673631 
H    -4.2202232    2.9552122   -0.0435681 
H    -3.6065251    1.7286502    1.0811592 
H    -2.9493057    3.3973158    1.1282173 
C     0.6539536    7.3981965    1.0318851 
F     0.6098811    8.6326583    0.4914494 
F    -0.2339671    7.3539259    2.0532384 
F     1.8872586    7.2292695    1.5742804 
C     0.1431912    5.8524399   -3.7527374 
F    -0.5083261    4.8978189   -4.4612152 
F    -0.4077499    7.0450618   -4.0505553 
F     1.4267170    5.8770062   -4.2100345 
C     2.6633043    2.8893041    4.1419480 
F     2.8562973    2.6781590    5.4570151 
F     3.6314132    2.1954294    3.4712666 
F     2.8830338    4.2004217    3.8864453 
C    -1.8704087    0.8872323    5.0730611 
F    -3.1384948    0.9104633    4.6046450 
F    -1.5471642   -0.4129550    5.3105471 
F    -1.8543085    1.5214233    6.2644466 
C     1.9852246   -5.6135357    2.5616195 
H     1.8063222   -5.9608396    3.5930275 
H     1.3104566   -6.1493493    1.8751236 
H     3.0214363   -5.8966471    2.3008426 
C     2.7608222   -0.9825001    4.4755015 
H     3.7132799   -0.5229963    4.1535002 
H     2.0710269   -0.1597910    4.7198432 
H     2.9514337   -1.5653046    5.3897916 
C    -2.5120359   -5.9383360   -1.5134976 
H    -3.2573982   -6.1377799   -2.3009783 
H    -1.8596645   -6.8297147   -1.4530349 
H    -3.0255354   -5.8351617   -0.5440003 
C    -0.2800680   -2.9819679   -4.9786695 
H    -1.0727230   -3.3634922   -5.6428871 
H    -0.1546950   -1.8997237   -5.1487969 
H     0.6630115   -3.4769702   -5.2794675 
O     3.0065077   -3.8351099    4.5112561 
O    -1.7084357   -5.3148488   -4.1636418 
C     4.4294612   -3.9484012    4.3954067 
H     4.7903470   -4.3350685    5.3600086 
H     4.7119871   -4.6550140    3.5917182 
H     4.8984119   -2.9657726    4.1953598 
C    -0.7728082   -6.3512183   -4.4933155 
H    -1.2425389   -6.9526980   -5.2855920 
H     0.1795120   -5.9293096   -4.8674946 
H    -0.5623789   -6.9947613   -3.6180508 
