122
Energy =
C     3.2317641    1.3709157   -1.1646489 
C     2.1863563    2.2120158   -1.5915599 
C     1.4056553    2.9847276   -0.6764286 
H     1.8928932    2.2078997   -2.6496510 
Pd    1.0918260    0.8141222   -0.2737996 
P    -0.9020563    0.9528094    1.0457747 
P     1.4544122   -1.5178770   -0.2771172 
H     3.5868234    1.4864838   -0.1302934 
H     1.9024066    3.3182233    0.2462977 
C     5.8527916   -0.9034455   -3.7056675 
C     5.9058187   -1.0480847   -2.3115943 
C     5.0614445   -0.2904709   -1.4931054 
C     4.1256880    0.6109816   -2.0521016 
C     4.1076207    0.7691626   -3.4595739 
C     4.9603158    0.0205127   -4.2745700 
H     6.5153868   -1.4935653   -4.3470292 
H     6.6118957   -1.7500025   -1.8563599 
H     5.1190044   -0.4014780   -0.4068541 
H     3.4276297    1.4909676   -3.9235298 
H     4.9342720    0.1602940   -5.3602205 
C    -1.7672532    5.5436333   -2.0794135 
C    -1.6500659    4.2323890   -2.5714604 
C    -0.6154417    3.4035227   -2.1249664 
C     0.3203369    3.8637688   -1.1714104 
C     0.2011773    5.1881195   -0.6975468 
C    -0.8329977    6.0201703   -1.1476528 
H    -2.5801952    6.1907376   -2.4241305 
H    -2.3737414    3.8554303   -3.3025567 
H    -0.5420749    2.3713447   -2.4846691 
H     0.9318398    5.5684477    0.0242491 
H    -0.9089410    7.0447155   -0.7689418 
Fe   -3.1800508   -1.5605333   -2.3943415 
C    -2.0108802   -0.3395543   -1.2192344 
C    -1.5068705   -1.7047549   -1.2149870 
C    -1.2431403   -2.0733200   -2.5875890 
H    -0.8694834   -3.0434640   -2.9156324 
C    -1.5497075   -0.9564631   -3.4293301 
H    -1.4741166   -0.9361704   -4.5179769 
C    -2.0290639    0.1026638   -2.5916134 
H    -2.3989387    1.0726861   -2.9291076 
C    -5.1833707   -1.1035683   -2.3631568 
H    -5.6384605   -0.1684673   -2.0310204 
C    -4.9267738   -2.2601708   -1.5531483 
H    -5.1665371   -2.3636603   -0.4935064 
C    -4.3218491   -3.2616453   -2.3857279 
H    -3.9934406   -4.2532726   -2.0688552 
C    -4.2118684   -2.7256454   -3.7113457 
H    -3.7721562   -3.2316540   -4.5729222 
C    -4.7422478   -1.3915383   -3.6969975 
H    -4.7812033   -0.7080292   -4.5473426 
C    -1.1670604   -2.5554739   -0.0377044 
C     0.1640333   -2.6033389    0.4742704 
C     0.4706354   -3.4486460    1.5567809 
H     1.4939654   -3.4823699    1.9437914 
C    -0.5233460   -4.2378801    2.1543310 
H    -0.2680374   -4.8881517    2.9971791 
C    -1.8354669   -4.1864366    1.6683427 
H    -2.6193482   -4.7975076    2.1273732 
C    -2.1436174   -3.3594053    0.5782084 
H    -3.1582747   -3.3257716    0.1754989 
C    -2.3986730    0.5386361   -0.0462711 
H    -2.6389352    1.5292450   -0.4755436 
C    -3.6328492    0.0312421    0.7203464 
H    -4.4647277   -0.0686634    0.0083721 
H    -3.4498744   -0.9583963    1.1682526 
H    -3.9408797    0.7281904    1.5138089 
C     5.4464825   -2.3002128    2.0323177 
C     4.6746215   -1.1573896    2.2913008 
C     3.4756157   -0.9504257    1.5960819 
C     3.0186683   -1.8873356    0.6438167 
C     3.8083595   -3.0263056    0.3844415 
C     5.0119596   -3.2291458    1.0748840 
H     6.3875289   -2.4616638    2.5680887 
H     5.0120586   -0.4176405    3.0245402 
H     2.8974952   -0.0378202    1.7767354 
H     3.5035555   -3.7499051   -0.3754792 
H     5.6160688   -4.1157318    0.8560331 
C     1.9849016   -3.4769170   -4.4654790 
C     1.8236128   -4.2897092   -3.3312162 
C     1.6703259   -3.7081737   -2.0658778 
C     1.6883143   -2.3033720   -1.9258310 
C     1.8220253   -1.4978702   -3.0682337 
C     1.9785537   -2.0813469   -4.3321801 
H     2.1016768   -3.9339100   -5.4536493 
H     1.8061152   -5.3798127   -3.4334451 
H     1.4978321   -4.3477596   -1.1933227 
H     1.7657630   -0.4117521   -2.9661341 
H     2.0866135   -1.4420854   -5.2141479 
H    -1.2710050   -1.1475376    2.1539192 
C    -2.0098876   -0.8236306    4.8018374 
C    -2.0112447    0.2128127    3.6621241 
C    -0.9780183   -0.1666173    2.5731140 
C     0.4228932   -0.3300612    3.2024065 
C     0.4261422   -1.3067073    4.3910448 
C    -0.6221037   -0.9348182    5.4485660 
H    -2.3114992   -1.8104910    4.3981011 
H    -2.7697357   -0.5394972    5.5519195 
H    -1.7565380    1.1998245    4.0875266 
H    -3.0232811    0.2969899    3.2412769 
H     1.1188577   -0.6939189    2.4320668 
H     0.8031428    0.6540330    3.5340443 
H     0.2069758   -2.3224366    4.0145756 
H     1.4394803   -1.3411806    4.8309401 
H    -0.3570607    0.0353209    5.9140104 
H    -0.6302317   -1.6838996    6.2604252 
H    -0.9735312    3.2796930    0.6831469 
C    -0.2960344    4.6611187    2.9858572 
C    -0.1940023    3.1544821    2.6839832 
C    -1.2146727    2.7209994    1.6051357 
C    -2.6561306    3.1314788    1.9859247 
C    -2.7193394    4.6479718    2.2571264 
C    -1.7314381    5.0644498    3.3578601 
H     0.0189530    5.2331026    2.0939465 
H     0.4061816    4.9225528    3.7979435 
H    -0.3807840    2.5951130    3.6187008 
H     0.8312636    2.8933309    2.3603211 
H    -3.3547405    2.8807291    1.1691153 
H    -2.9963454    2.5901292    2.8850780 
H    -2.4805888    5.1917502    1.3222397 
H    -3.7513882    4.9271830    2.5355969 
H    -2.0164996    4.5752506    4.3105528 
H    -1.7879133    6.1535829    3.5336587 
