122
Energy =
C     0.0898009   -2.8124886    1.5676874 
C     0.5982604   -2.0617346    2.6580684 
C    -0.2226915   -1.1239299    3.3335186 
H     1.6611121   -2.1443958    2.9159646 
Pd    0.0778886   -0.5737276    1.1134574 
P    -0.0230631    1.7610093    1.4909872 
P     0.2489804   -0.8004663   -1.2154536 
H    -1.0019181   -2.9452629    1.5226358 
H    -1.3080769   -1.2502509    3.2106311 
C     2.2681479   -5.7723904   -0.6665506 
C     2.9527093   -4.6731488   -0.1208474 
C     2.2605115   -3.7119403    0.6217277 
C     0.8645455   -3.8172220    0.8174403 
C     0.1922617   -4.9374286    0.2802492 
C     0.8892218   -5.9090886   -0.4480889 
H     2.8064006   -6.5185276   -1.2593225 
H     4.0311795   -4.5600943   -0.2725843 
H     2.8134833   -2.8684229    1.0434651 
H    -0.8870895   -5.0392735    0.4360770 
H     0.3510803   -6.7651269   -0.8663143 
C     0.8066296    0.9971718    6.9228189 
C    -0.5102453    1.0039240    6.4402757 
C    -0.8243859    0.3326216    5.2533148 
C     0.1720857   -0.3562465    4.5226552 
C     1.5002071   -0.3337203    5.0103546 
C     1.8096173    0.3288286    6.2003256 
H     1.0535749    1.5115548    7.8572447 
H    -1.2980196    1.5234925    6.9953167 
H    -1.8566809    0.3296593    4.8891138 
H     2.2992829   -0.8403940    4.4614335 
H     2.8409743    0.3285701    6.5663455 
Fe   -3.2073638    2.2051814   -2.5485684 
C    -1.7654413    1.0726952   -1.6860454 
C    -1.8627903    2.3561771   -1.0044467 
C    -3.2205351    2.5006852   -0.5387359 
H    -3.6028144    3.3631983    0.0090647 
C    -3.9485768    1.3163039   -0.8805191 
H    -5.0044235    1.1307147   -0.6759544 
C    -3.0642291    0.4396926   -1.5924162 
H    -3.3476082   -0.5138188   -2.0407851 
C    -3.0777847    1.9894373   -4.5782189 
H    -2.4693625    1.2563728   -5.1119274 
C    -2.6655642    3.3095054   -4.1952529 
H    -1.6954804    3.7620530   -4.4090461 
C    -3.7594314    3.9346318   -3.5045631 
H    -3.7680635    4.9408500   -3.0812071 
C    -4.8487191    3.0021427   -3.4678923 
H    -5.8190062    3.1674213   -2.9961971 
C    -4.4285503    1.8008503   -4.1318096 
H    -5.0233614    0.8932457   -4.2507760 
C    -0.7651959    3.3325558   -0.7626310 
C     0.2182692    3.1116682    0.2418869 
C     1.2929896    4.0159400    0.3721214 
H     2.0564539    3.8521431    1.1368477 
C     1.3852223    5.1480542   -0.4490473 
H     2.2305187    5.8338450   -0.3324392 
C     0.3795790    5.4087047   -1.3871913 
H     0.4223706    6.3070273   -2.0115849 
C    -0.6798089    4.5049998   -1.5351661 
H    -1.4605169    4.6814770   -2.2771428 
C     1.9910409   -0.9519593   -1.7759613 
C     2.9989318   -0.8430300   -0.8055894 
H     2.7138349   -0.6623901    0.2365705 
C     4.3489361   -0.9784781   -1.1559287 
C     4.7141399   -1.2198895   -2.4867177 
H     5.7649423   -1.3318884   -2.7638215 
C     3.7106725   -1.3109093   -3.4623279 
C     2.3596162   -1.1707336   -3.1167001 
H     1.6034139   -1.2350394   -3.9052380 
C    -0.5673467   -2.3636371   -1.7620723 
C    -1.8401681   -2.6065467   -1.2189290 
H    -2.2663846   -1.9071143   -0.4921591 
C    -2.5604940   -3.7544960   -1.5737365 
C    -2.0155707   -4.6915997   -2.4591734 
H    -2.5683545   -5.5991460   -2.7146265 
C    -0.7280780   -4.4692529   -2.9695355 
C    -0.0052295   -3.3174150   -2.6292858 
H     1.0109100   -3.2111279   -3.0141438 
C    -0.5605307    0.4851917   -2.3806849 
H    -0.9309292   -0.1215503   -3.2254571 
C     0.4549484    1.5159704   -2.9086815 
H    -0.1038457    2.3393414   -3.3805502 
H     1.0776598    1.9458517   -2.1086440 
H     1.1233530    1.0732644   -3.6624942 
C    -3.8855592   -3.9907534   -0.8879454 
F    -4.6785423   -2.8908564   -0.9585299 
F    -4.5632517   -5.0295416   -1.4058658 
F    -3.6883338   -4.2424017    0.4385749 
C    -0.1077454   -5.4999085   -3.8915905 
F     1.2412696   -5.3930454   -3.9235312 
F    -0.4116248   -6.7583280   -3.4892708 
F    -0.5584335   -5.3629174   -5.1582147 
C     5.3836614   -0.8902053   -0.0570752 
F     6.6418135   -0.9709637   -0.5198791 
F     5.2645178    0.2781754    0.6315888 
F     5.2094354   -1.8905367    0.8514171 
C     4.0459193   -1.5763907   -4.9158905 
F     3.4800448   -2.7375961   -5.3274154 
F     3.5527634   -0.5926853   -5.7074122 
F     5.3730017   -1.6594434   -5.1281119 
C     3.5233470    2.7209503    4.3479779 
C     3.7045828    1.9404049    3.1959127 
C     2.6072339    1.6403627    2.3792124 
C     1.3195953    2.1259003    2.6969903 
C     1.1421962    2.8914282    3.8635467 
C     2.2428769    3.1846678    4.6819184 
H     4.3777110    2.9582324    4.9902469 
H     4.6960253    1.5642073    2.9254385 
H     2.7602609    1.0475358    1.4718231 
H     0.1487441    3.2473674    4.1480320 
H     2.0920828    3.7738526    5.5920346 
C    -4.1052104    3.0532887    3.3106121 
C    -3.0937560    4.0084454    3.1164099 
C    -1.8579254    3.6266727    2.5776455 
C    -1.6176919    2.2755456    2.2483769 
C    -2.6455390    1.3300686    2.4206168 
C    -3.8833821    1.7152464    2.9530107 
H    -5.0716673    3.3567490    3.7262672 
H    -3.2712515    5.0569791    3.3770669 
H    -1.0863959    4.3824829    2.3948956 
H    -2.4840479    0.2955301    2.0996292 
H    -4.6787530    0.9727580    3.0750712 
