142
Energy =
C    -0.3331473    3.3052792    1.0696673 
C    -0.6794605    2.6657792    2.2815511 
C     0.2958798    1.9597452    3.0488010 
H    -1.7360413    2.5860867    2.5689152 
Pd    0.1044425    1.0134857    1.0498564 
P     1.0057915   -1.0705454    1.6021642 
P    -0.1720823    0.6112951   -1.2693171 
H     0.7344295    3.5017477    0.8953116 
H     1.3358363    2.3162749    2.9898869 
C    -2.9768284    5.4644947   -1.5430258 
C    -1.6662119    5.1610174   -1.9422442 
C    -0.8071953    4.4802215   -1.0742388 
C    -1.2511534    4.0606196    0.2019777 
C    -2.5672264    4.3936295    0.6001153 
C    -3.4167100    5.0936074   -0.2621518 
H    -3.6488048    6.0020393   -2.2197841 
H    -1.3086449    5.4601961   -2.9326613 
H     0.2139114    4.2505457   -1.3913574 
H    -2.9267924    4.1198471    1.5974658 
H    -4.4284520    5.3522346    0.0658439 
C    -0.6541232   -0.2009722    6.6506535 
C    -1.5148310   -0.2759510    5.5422748 
C    -1.2159570    0.4296248    4.3714974 
C    -0.0447006    1.2164960    4.2815571 
C     0.8119290    1.2833595    5.4003825 
C     0.5038844    0.5863425    6.5766246 
H    -0.8774307   -0.7643054    7.5617166 
H    -2.4199087   -0.8911821    5.5925008 
H    -1.8777521    0.3543185    3.5007619 
H     1.7277809    1.8809144    5.3441373 
H     1.1818985    0.6413564    7.4336960 
Fe   -3.1017154   -3.2296117    0.4256208 
C    -1.5820719   -2.0043653    1.0501005 
C    -1.6877542   -1.9894828   -0.3998360 
C    -3.0302127   -1.5763975   -0.7285964 
H    -3.4215089   -1.4709433   -1.7410053 
C    -3.7389114   -1.3089348    0.4865018 
H    -4.7813860   -0.9950819    0.5642541 
C    -2.8528629   -1.5744367    1.5803343 
H    -3.1023499   -1.5105140    2.6415456 
C    -2.6794520   -5.2449989    0.3777968 
H    -1.7033047   -5.7290299    0.3202727 
C    -3.5032123   -4.8697334   -0.7368672 
H    -3.2546159   -4.9872833   -1.7933013 
C    -4.7132751   -4.3000437   -0.2201215 
H    -5.5353216   -3.8950982   -0.8132930 
C    -4.6368712   -4.3190551    1.2131321 
H    -5.3927150   -3.9349414    1.9007942 
C    -3.3795052   -4.9015888    1.5828598 
H    -3.0288859   -5.0613807    2.6042097 
C    -0.5852605   -2.2006461   -1.3809310 
C     0.1806786   -1.1031723   -1.8739651 
C     1.2240120   -1.3383025   -2.7911772 
H     1.8344277   -0.5011274   -3.1435515 
C     1.5067475   -2.6364439   -3.2388184 
H     2.3294861   -2.8029317   -3.9408424 
C     0.7491683   -3.7172266   -2.7703103 
H     0.9727584   -4.7343171   -3.1057845 
C    -0.2829399   -3.4925056   -1.8501550 
H    -0.8820500   -4.3248523   -1.4735295 
C     0.9926369    1.7132891   -2.1719576 
C     0.8746142    1.9969902   -3.5455951 
H     0.0681307    1.5519316   -4.1347787 
C     1.7661659    2.8711178   -4.1907353 
C     2.7878812    3.4752507   -3.4204277 
C     2.9025939    3.2540814   -2.0290107 
C     2.0049160    2.3582271   -1.4331570 
H     2.0743376    2.1810140   -0.3520299 
C    -1.8466734    0.9274338   -1.9468268 
C    -2.8384983    1.4722049   -1.1142175 
H    -2.5935550    1.7236008   -0.0781791 
C    -4.1557364    1.6334744   -1.5674013 
C    -4.4598146    1.2473382   -2.8928988 
C    -3.4797299    0.7099844   -3.7615036 
C    -2.1789259    0.5393855   -3.2592177 
H    -1.4287077    0.0639650   -3.9011344 
C     2.3093863   -1.6570281    0.4179723 
C     3.1467084   -0.6654345   -0.1259418 
H     2.9685422    0.3886582    0.0989372 
C     4.2062969   -1.0086683   -0.9774985 
C     4.4378732   -2.3452290   -1.3194415 
H     5.2542001   -2.6108799   -1.9965082 
C     3.5921029   -3.3322346   -0.7960898 
C     2.5486132   -3.0004591    0.0768703 
H     1.9239427   -3.8029527    0.4595565 
C     1.9888640   -1.0910758    3.1726339 
C     1.6664264   -1.8773362    4.2926156 
H     0.8021536   -2.5433854    4.2973173 
C     2.4432830   -1.7992837    5.4571636 
C     3.5388972   -0.9296238    5.5343328 
H     4.1300129   -0.8560576    6.4507961 
C     3.8435127   -0.1272064    4.4277433 
C     3.0833002   -0.2115001    3.2548479 
H     3.3490311    0.4313526    2.4100442 
C    -0.3714222   -2.3184715    1.9064995 
H    -0.6501777   -2.0021715    2.9295637 
C     0.0198699   -3.8078318    1.9520172 
H    -0.7661666   -4.3581542    2.4908636 
H     0.0756418   -4.2251760    0.9362953 
H     0.9786919   -3.9797737    2.4697850 
C     2.1008904   -2.6634755    6.6532849 
F     2.1987373   -1.9623447    7.8088207 
F     0.8377921   -3.1500924    6.5759807 
F     2.9372700   -3.7201891    6.7531078 
C     4.9185305    0.9330367    4.5164352 
F     5.5880055    1.0641479    3.3478478 
F     4.3563989    2.1475843    4.7843774 
F     5.8123638    0.6784083    5.4899426 
C     5.0494700    0.0822003   -1.5968504 
F     5.1752699    1.1462673   -0.7661411 
F     4.4850437    0.5453459   -2.7494638 
F     6.2869314   -0.3495520   -1.9105988 
C     3.8093504   -4.7733000   -1.2076907 
F     4.9602468   -5.2680900   -0.7059092 
F     2.7985760   -5.5747230   -0.7932155 
F     3.8825487   -4.8804491   -2.5598273 
C     1.6301008    3.1837084   -5.6623137 
H     0.5866045    3.0640407   -5.9971815 
H     1.9599968    4.2145746   -5.8706427 
H     2.2537337    2.5053909   -6.2745505 
C     3.9554268    3.9866584   -1.2347383 
H     4.9703354    3.6797567   -1.5402677 
H     3.8820881    5.0742047   -1.4057352 
H     3.8527981    3.7830942   -0.1564311 
C    -5.2488054    2.1737434   -0.6777537 
H    -6.0592346    1.4339191   -0.5479255 
H    -4.8557858    2.4341526    0.3171695 
H    -5.7083250    3.0722175   -1.1238578 
C    -3.8263601    0.3360087   -5.1843479 
H    -4.1899180   -0.7065692   -5.2534012 
H    -4.6221715    0.9925272   -5.5727335 
H    -2.9439313    0.4186324   -5.8398473 
O     3.6603295    4.3630030   -4.0027192 
O    -5.7453162    1.4573512   -3.3420744 
C     4.7928056    3.7727888   -4.6642614 
H     5.4667390    4.6026022   -4.9230557 
H     5.3119087    3.0594211   -3.9975885 
H     4.4899406    3.2439298   -5.5874052 
C    -6.6048433    0.3101804   -3.3588864 
H    -6.6846101   -0.1422240   -2.3512350 
H    -7.5945774    0.6689450   -3.6782022 
H    -6.2489992   -0.4593544   -4.0693334 
