110
Energy =
C     2.1528360    2.0284757    0.9948602 
C     2.5513534    2.1223194   -0.3610260 
C     1.8472736    2.9286711   -1.2827941 
H     3.4013261    1.5183638   -0.7031847 
Pd    0.5452244    1.1575732   -0.3590258 
P    -1.2698306    0.7619827   -1.9085188 
P    -0.0651423   -0.4519878    1.2066877 
H     1.4945616    2.8255023    1.3749136 
H     1.2092906    3.7164221   -0.8602331 
C     4.5984027    0.2310518    4.0397903 
C     4.5107599   -0.3779735    2.7759746 
C     3.7061296    0.1831244    1.7791381 
C     2.9605967    1.3572087    2.0308063 
C     3.0458846    1.9495969    3.3097696 
C     3.8662252    1.3983662    4.3018284 
H     5.2334153   -0.2063323    4.8171006 
H     5.0744117   -1.2931517    2.5668174 
H     3.6452907   -0.3018084    0.8002825 
H     2.4638489    2.8510518    3.5290475 
H     3.9129261    1.8733427    5.2863793 
C     3.0968809    3.6836683   -5.3283281 
C     3.5496558    2.5302010   -4.6654802 
C     3.1514819    2.2694788   -3.3514416 
C     2.2879114    3.1581854   -2.6659476 
C     1.8553388    4.3242209   -3.3414594 
C     2.2528290    4.5823726   -4.6584361 
H     3.4075076    3.8833292   -6.3588227 
H     4.2154905    1.8294330   -5.1797752 
H     3.5030666    1.3565376   -2.8596618 
H     1.2041642    5.0346928   -2.8206978 
H     1.9077117    5.4910379   -5.1622730 
Fe   -3.0297043   -2.5182023    1.0898917 
C    -1.8318874   -0.8745966    1.2123621 
C    -2.7375097   -0.7831308    0.0775529 
C    -4.0785260   -0.8500911    0.6127620 
C    -4.0094717   -0.9996392    2.0349351 
C    -2.6322096   -1.0290944    2.4118115 
C    -3.1195785   -4.0187951   -0.3069946 
C    -1.9860627   -4.2031337    0.5481293 
C    -2.4620102   -4.3098938    1.9004561 
C    -3.8918022   -4.1903168    1.8760093 
C    -4.2986685   -4.0074787    0.5113922 
C     0.1580799    0.1277853    2.9401665 
C    -0.5153841    1.3201706    3.2869499 
C    -0.3802414    1.8639844    4.5662562 
C     0.4313050    1.2179091    5.5150628 
C     1.0942356    0.0298393    5.1821849 
C     0.9675770   -0.5097008    3.8952812 
C     0.8916161   -2.0116247    1.0592072 
C     1.8130020   -2.1698975    0.0092023 
C     2.5316103   -3.3645606   -0.1317444 
C     2.3385870   -4.4033449    0.7902280 
C     1.4259024   -4.2520961    1.8493656 
C     0.6977223   -3.0658039    1.9755059 
C    -2.3815644   -0.7150877   -1.3974348 
H    -5.0048329   -0.8346681    0.0388221 
H    -4.8618867   -1.1108803    2.7072288 
H    -2.2402308   -1.1204496    3.4256295 
H    -3.0874416   -3.9072304   -1.3925162 
H    -0.9462299   -4.2544771    0.2243478 
H    -1.8548460   -4.4703375    2.7923426 
H    -4.5529499   -4.2134699    2.7441388 
H    -5.3228892   -3.8648524    0.1617690 
H    -1.1489296    1.8243879    2.5477450 
H     1.5379604   -1.4054378    3.6392482 
H     1.9645760   -1.3504677   -0.7011043 
H    -0.0382669   -2.9624041    2.7777535 
H    -1.6871677   -1.5527196   -1.6023366 
C    -3.6655209   -0.9241608   -2.2280343 
H    -4.1039636   -1.8977001   -1.9516939 
H    -4.4167069   -0.1514058   -2.0061282 
H    -3.4899060   -0.9252345   -3.3078172 
C     0.6885037    1.8675069    6.8550233 
F     1.7840724    2.6773986    6.7843006 
F    -0.3470228    2.6374244    7.2536354 
F     0.9317582    0.9561232    7.8214479 
H    -0.8990352    2.7891101    4.8334573 
H     1.7349549   -0.4616127    5.9192334 
H     3.2463715   -3.4897862   -0.9498181 
H     1.2834283   -5.0672176    2.5651485 
C     3.0646767   -5.7221768    0.6205618 
F     3.4288326   -6.2406454    1.8151800 
F     2.2669202   -6.6331322    0.0120714 
F     4.1783959   -5.5891547   -0.1336927 
C    -0.5310261    0.2070710   -3.6068762 
C    -2.4124474    2.2948217   -2.0442700 
C     0.7049915   -0.6467909   -3.2390325 
H     1.1946218   -0.9995497   -4.1652091 
H     1.4400475   -0.0547013   -2.6654855 
H     0.4312527   -1.5369419   -2.6444775 
C    -3.3458458    2.2934558   -3.2747212 
H    -3.9952337    3.1867856   -3.2219219 
H    -2.7829733    2.3538628   -4.2193925 
H    -4.0005657    1.4120391   -3.3170378 
C    -1.4426402   -0.6332975   -4.5237492 
H    -0.8833502   -0.8389559   -5.4550162 
H    -1.7070515   -1.6086814   -4.0840303 
H    -2.3634872   -0.0993319   -4.8079250 
C    -0.0742899    1.4523670   -4.3896178 
H     0.5662093    1.1323597   -5.2308452 
H    -0.9248307    2.0087911   -4.8135734 
H     0.5204754    2.1335331   -3.7691693 
C    -3.2421371    2.3237520   -0.7383696 
H    -3.7648314    3.2951071   -0.6687352 
H    -4.0030726    1.5300476   -0.7007390 
H    -2.5970342    2.2198100    0.1536160 
C    -1.5395889    3.5680846   -2.0735427 
H    -2.2011522    4.4503827   -2.1503393 
H    -0.9548307    3.6646666   -1.1434999 
H    -0.8456731    3.5908269   -2.9268122 
