112
Energy =
C     2.1245690   -0.4379262   -2.5157207 
C     2.2758369    0.9596571   -2.3774991 
C     2.8523417    1.5378698   -1.2111249 
H     1.8604397    1.6294204   -3.1413891 
Pd    0.9606394    0.4214239   -0.6840602 
P     0.6504142    1.4751081    1.3849321 
P    -0.7595200   -1.1622783   -0.3953255 
H     2.7432705   -1.0665961   -1.8585690 
H     3.5452090    0.9101346   -0.6306388 
C     0.6380337   -2.5679369   -5.9504107 
C     1.2955096   -3.2429206   -4.9108709 
C     1.7796493   -2.5276115   -3.8100782 
C     1.6081991   -1.1267646   -3.7091657 
C     0.9789249   -0.4581371   -4.7855519 
C     0.4957726   -1.1714269   -5.8870433 
H     0.2569303   -3.1214478   -6.8145543 
H     1.4396258   -4.3273242   -4.9609681 
H     2.3114921   -3.0550799   -3.0119347 
H     0.8678756    0.6294595   -4.7682765 
H     0.0097593   -0.6335927   -6.7077313 
C     3.6439918    5.7579593   -1.0590062 
C     2.4206950    5.2979206   -1.5754326 
C     2.1333867    3.9304203   -1.5916597 
C     3.0677486    2.9924700   -1.0951411 
C     4.2764176    3.4707944   -0.5422748 
C     4.5670470    4.8410402   -0.5359860 
H     3.8685197    6.8294827   -1.0525400 
H     1.6841072    6.0122562   -1.9566858 
H     1.1666418    3.5799688   -1.9713109 
H     5.0050178    2.7559307   -0.1432688 
H     5.5182546    5.1931190   -0.1233007 
Fe   -2.7162632   -1.5913011    2.6526227 
C    -1.1209825   -1.4179409    1.3825672 
C    -1.1173602   -0.3631842    2.3936552 
C    -1.0652345   -0.9929262    3.6868758 
C    -1.0592691   -2.4103414    3.5062416 
C    -1.1082307   -2.6800316    2.1025814 
C    -4.5017689   -1.6547521    1.6378887 
C    -4.3210579   -2.8384128    2.4260622 
C    -4.1698070   -2.4364613    3.7963842 
C    -4.2534455   -1.0031124    3.8524952 
C    -4.4571795   -0.5187755    2.5169213 
C    -1.0523955    1.1216478    2.1532771 
H    -1.0637852   -0.4785337    4.6478647 
H    -1.0607955   -3.1592002    4.3000259 
H    -1.1350104   -3.6750226    1.6623812 
H    -4.6563657   -1.6264634    0.5589436 
H    -4.2950725   -3.8628498    2.0502009 
H    -3.9994244   -3.1014786    4.6449840 
H    -4.1656008   -0.3919600    4.7526714 
H    -4.5713454    0.5270476    2.2253844 
H    -1.7549780    1.3954781    1.3505559 
C    -1.3744562    1.9471414    3.4062448 
H    -2.3712899    1.6516790    3.7782683 
H    -0.6450597    1.7663057    4.2121882 
H    -1.3857606    3.0258150    3.1887012 
H    -0.0063121   -2.6293006   -2.1017981 
C    -0.9750083   -5.2483224   -1.6167012 
C    -1.4583956   -3.8736935   -1.1180950 
C    -0.2950087   -2.8533373   -1.0570777 
C     0.9740087   -3.3892133   -0.3453467 
C     1.3760276   -4.7950501   -0.8305507 
C     0.1950962   -5.7751826   -0.7735784 
H    -0.6507363   -5.1573021   -2.6721630 
H    -1.8205383   -5.9590627   -1.6048062 
H    -1.9343907   -3.9888707   -0.1276175 
H    -2.2435850   -3.4980406   -1.7967903 
H     1.8027283   -2.6753110   -0.5092502 
H     0.8164605   -3.4236079    0.7462687 
H     1.7384268   -4.7430524   -1.8746827 
H     2.2219468   -5.1614354   -0.2216252 
H    -0.1329374   -5.9046960    0.2775600 
H     0.5091572   -6.7720139   -1.1302979 
H    -2.9941918   -1.6728214   -1.0034463 
C    -1.6946239    0.6819354   -3.2550249 
C    -2.2458219   -0.6768473   -2.7924432 
C    -2.3911217   -0.7823993   -1.2553804 
C    -3.1105098    0.4535399   -0.6779317 
C    -2.5216632    1.7870732   -1.1595667 
C    -2.4980881    1.8610132   -2.6914873 
H    -1.6712658    0.7101276   -4.3574574 
H    -0.6454083    0.7771199   -2.9077797 
H    -1.6206703   -1.4935263   -3.1965161 
H    -3.2563548   -0.8198268   -3.2223205 
H    -4.1700158    0.3985626   -0.9960813 
H    -3.1178234    0.3830130    0.4227960 
H    -3.0950584    2.6273437   -0.7273023 
H    -1.4759730    1.8826080   -0.7961024 
H    -2.0588995    2.8182796   -3.0256507 
H    -3.5344285    1.8318774   -3.0814059 
C     3.4043231   -0.5211969    4.5491468 
C     2.8617861    0.7444018    4.8210629 
C     2.0624614    1.3909427    3.8682630 
C     1.8058973    0.7741253    2.6243551 
C     2.3567417   -0.4971472    2.3594030 
C     3.1495044   -1.1421794    3.3175360 
H     4.0280541   -1.0213087    5.2973101 
H     3.0608840    1.2324932    5.7807974 
H     1.6474245    2.3786147    4.0921889 
H     2.1472235   -0.9823902    1.3980951 
H     3.5691577   -2.1299815    3.1008409 
C     0.9806017    6.1100149    1.4570770 
C    -0.1990416    5.4837119    1.0272249 
C    -0.2863802    4.0866725    1.0109257 
C     0.8037804    3.2959456    1.4389863 
C     1.9966990    3.9332870    1.8387992 
C     2.0770783    5.3319982    1.8536531 
H     1.0482635    7.2025371    1.4726161 
H    -1.0558532    6.0841294    0.7043726 
H    -1.2124368    3.6141872    0.6690065 
H     2.8653987    3.3405220    2.1378982 
H     3.0085491    5.8132811    2.1666944 
