94
Energy =
C     0.0713811    1.0718630    2.7841267 
C    -0.5967888    2.0748220    2.0461427 
C    -1.9073343    1.8580918    1.5156539 
H    -0.0428205    2.9668461    1.7285207 
Pd   -0.5140111    0.3518835    0.6893484 
P    -1.7318260   -0.2915132   -1.1753556 
P     1.4777543   -0.8082023    0.2662401 
H    -0.5474165    0.2806044    3.2355873 
H    -2.5871587    1.2068210    2.0849839 
C     4.0954739    1.1924683    4.2935884 
C     3.2686389    0.0861240    4.5390746 
C     1.9562106    0.0714816    4.0554606 
C     1.4473730    1.1529223    3.2984158 
C     2.2891085    2.2664026    3.0714376 
C     3.5953430    2.2856584    3.5669189 
H     5.1214428    1.2103243    4.6755498 
H     3.6421555   -0.7653210    5.1175006 
H     1.3145653   -0.7913390    4.2570722 
H     1.9215832    3.1273067    2.5054326 
H     4.2309067    3.1573185    3.3820354 
C    -3.8264519    4.7233242   -1.0627124 
C    -2.4415987    4.5105847   -1.1628333 
C    -1.8125158    3.5747098   -0.3360295 
C    -2.5555408    2.8332700    0.6127379 
C    -3.9477109    3.0463073    0.6907832 
C    -4.5763699    3.9857405   -0.1355516 
H    -4.3187253    5.4549166   -1.7115967 
H    -1.8524593    5.0723908   -1.8953579 
H    -0.7360441    3.3929258   -0.4411243 
H    -4.5370410    2.4732386    1.4147438 
H    -5.6575927    4.1401844   -0.0570803 
Fe    0.9765693   -0.9992629   -3.0437804 
C    -0.7662942   -0.0642431   -2.6922159 
C    -0.8408490   -0.8110441   -3.9281734 
H    -1.5308159   -1.6294431   -4.1391477 
C     0.1774354   -0.3081703   -4.8023228 
H     0.4017536   -0.6864864   -5.8014046 
C     0.8833102    0.7404363   -4.1222858 
H     1.7348217    1.2978424   -4.5166686 
C     0.3092287    0.8984980   -2.8193756 
C     1.8381759   -1.6230040   -1.3288792 
C     2.8470868   -1.2095077   -2.2801515 
H     3.5717220   -0.4080492   -2.1296160 
C     2.7053091   -2.0213711   -3.4520632 
H     3.3027513   -1.9358901   -4.3615177 
C     1.6210929   -2.9352918   -3.2384694 
H     1.2491030   -3.6688433   -3.9559777 
C     1.0791027   -2.6957347   -1.9345348 
H     0.6370044    1.5894479   -2.0394834 
H     0.2443114   -3.2260593   -1.4796861 
C    -3.3101722    0.4578481   -1.6277187 
C    -3.7020344    1.2445660   -2.6902855 
C    -5.0994877    1.4910950   -2.5111730 
C    -5.4749976    0.8484234   -1.3522334 
H    -3.0609809    1.5905071   -3.5006044 
H    -5.7525054    2.0757344   -3.1589160 
O    -4.3862946    0.2209078   -0.8021333 
C    -6.7602448    0.7327791   -0.6101345 
H    -7.0264600   -0.3248758   -0.4365073 
H    -6.6930375    1.2262711    0.3771267 
H    -7.5682187    1.2110909   -1.1840740 
C    -2.1855469   -2.0369015   -1.0552176 
C    -3.0394411   -2.8528681   -1.7661519 
C    -2.9469652   -4.1529389   -1.1780724 
C    -2.0536496   -4.0582860   -0.1326648 
H    -3.6652703   -2.5452425   -2.6045313 
H    -3.4822397   -5.0530735   -1.4811434 
O    -1.5884569   -2.7699776   -0.0462223 
C    -1.5361754   -5.0309597    0.8705330 
H    -0.4330413   -5.0799998    0.8462354 
H    -1.8362253   -4.7440426    1.8949252 
H    -1.9399848   -6.0325499    0.6593504 
C     2.7962032    0.4291892    0.3530419 
C     4.1435651    0.4146396    0.6356996 
C     4.6279615    1.7351753    0.3716184 
C     3.5534809    2.4804130   -0.0605489 
H     4.7054344   -0.4463271    0.9940551 
H     5.6483995    2.0978331    0.4967292 
C     1.8695209   -2.0245314    1.5355750 
C     1.0264152   -2.7568223    2.3449111 
C     1.8624741   -3.5938657    3.1495712 
C     3.1648102   -3.3241353    2.7838042 
H    -0.0609435   -2.6825044    2.3549218 
H     1.5481190   -4.3068579    3.9119170 
O     2.4307465    1.6935196   -0.0763639 
O     3.1748630   -2.3782939    1.7924641 
C     3.3766510    3.9015025   -0.4708121 
H     2.6766859    4.4274933    0.2046363 
H     4.3448174    4.4237865   -0.4422276 
H     2.9694128    3.9742053   -1.4955295 
C     4.4902578   -3.8273285    3.2403715 
H     4.3538234   -4.5858220    4.0258580 
H     5.0514927   -4.2813024    2.4042042 
H     5.1038893   -3.0034526    3.6477565 
