124
Energy =
C     1.4413297   -3.0009832   -0.2700902 
C     2.1052527   -2.1915722   -1.2271984 
C     3.0976024   -1.2511919   -0.8549014 
H     1.7597406   -2.2284470   -2.2683974 
Pd    1.0935304   -0.7936703    0.1594323 
P     1.5113023    1.4744145    0.5719596 
P    -1.0302940   -0.8358887    1.1224530 
H     1.9561713   -3.1704501    0.6883284 
H     3.6160503   -1.4205314    0.0994095 
C    -1.1691063   -6.1949283   -1.4730338 
C    -0.3048617   -6.3491422   -0.3789566 
C     0.5011961   -5.2830865    0.0354883 
C     0.4816227   -4.0522055   -0.6569204 
C    -0.4010021   -3.9060951   -1.7514217 
C    -1.2245085   -4.9642156   -2.1491136 
H    -1.8057211   -7.0263930   -1.7929948 
H    -0.2679438   -7.2996299    0.1626906 
H     1.1682939   -5.4062553    0.8955505 
H    -0.4588511   -2.9503580   -2.2808062 
H    -1.9123089   -4.8293278   -2.9904862 
C     5.3032313    1.2820632   -3.5520667 
C     4.1278491    0.6530901   -3.9971793 
C     3.3955159   -0.1673924   -3.1346902 
C     3.8207552   -0.3831218   -1.8014608 
C     5.0152079    0.2413623   -1.3764692 
C     5.7456333    1.0668031   -2.2394479 
H     5.8733206    1.9257460   -4.2297849 
H     3.7854245    0.8001727   -5.0269436 
H     2.4837312   -0.6457672   -3.5076010 
H     5.3699379    0.0749416   -0.3543476 
H     6.6640019    1.5431916   -1.8810757 
Fe   -2.5976129    2.3479786    1.2018634 
C    -1.5791565    0.7242666    1.9066019 
C    -0.8405651    1.9507720    2.1717619 
C    -1.7036177    2.7964488    2.9626072 
C    -2.9412238    2.1176410    3.1951728 
C    -2.8786896    0.8523670    2.5345486 
C    -4.4332541    2.7978677    0.4152145 
C    -3.6930507    3.9948373    0.6957691 
C    -2.4766418    3.9495213   -0.0616331 
C    -2.4625148    2.7224074   -0.8081303 
C    -3.6770578    2.0159828   -0.5152358 
C     0.6336952    2.2753696    2.0384065 
H    -1.4462248    3.7988358    3.3127976 
H    -3.8029151    2.5179143    3.7325354 
H    -3.6724191    0.1050194    2.5110475 
H    -5.3895158    2.5160989    0.8599990 
H    -3.9879735    4.7840900    1.3900490 
H    -1.6969272    4.7095496   -0.0520545 
H    -1.6713296    2.3845999   -1.4772918 
H    -3.9703185    1.0470145   -0.9155328 
H     0.7194858    3.3615932    1.8534532 
C     1.3300280    1.9794099    3.3885689 
H     0.7483241    2.4532623    4.1966073 
H     1.3670963    0.8961578    3.5941841 
H     2.3570663    2.3742893    3.4178330 
C     5.9748527    1.6453449    2.0071285 
C     5.0476425    0.6606152    2.4044998 
C     3.7474750    0.6825318    1.9013378 
C     3.3014387    1.6811169    1.0002836 
C     4.2292068    2.6611926    0.5589832 
C     5.5381128    2.6122351    1.0881307 
H     5.3459214   -0.1281160    3.1040198 
H     3.0474150   -0.1040237    2.2111913 
H     6.2546032    3.3669581    0.7424806 
C     0.2626908    3.8575176   -3.1961680 
C     0.3848717    4.5683147   -1.9841546 
C     0.7613961    3.8643489   -0.8287016 
C     1.0219320    2.4820100   -0.8794374 
C     0.8802848    1.8006567   -2.1003538 
C     0.5001381    2.4748716   -3.2757980 
H    -0.0421324    4.3992326   -4.0997310 
H     0.8508626    4.4125023    0.1151281 
H     1.0624309    0.7211120   -2.1250185 
C     7.3907559    1.6369252    2.5335442 
H     7.4001166    1.6721308    3.6377201 
H     7.9155290    0.7108660    2.2354660 
H     7.9701998    2.4950043    2.1568038 
C     3.9354446    3.7216911   -0.4772111 
H     3.5151899    3.2815216   -1.3960945 
H     3.2162761    4.4724182   -0.1091154 
H     4.8626103    4.2519797   -0.7460904 
C     0.0851560    6.0498516   -1.9339214 
H     0.6655953    6.5990592   -2.6959599 
H    -0.9843336    6.2392818   -2.1398398 
H     0.3231138    6.4794097   -0.9468110 
C     0.3693366    1.7261965   -4.5828187 
H     1.3452844    1.6783068   -5.1005835 
H     0.0335253    0.6876770   -4.4181050 
H    -0.3448442    2.2185194   -5.2631027 
C    -1.3789074   -3.4891830    4.9646527 
C    -0.8169192   -2.2255031    4.9544349 
C    -0.7686909   -1.4909022    3.7476788 
C    -1.2393480   -2.0144772    2.5394086 
H    -1.4525177   -4.0591659    5.8972439 
H    -0.4326491   -1.7758873    5.8754335 
H    -0.3734502   -0.4705327    3.7747508 
C    -1.7817568   -3.3523153    2.5093237 
C    -1.8829347   -4.0698540    3.7665276 
C    -2.4954425   -5.3581968    3.7943708 
C    -3.0030615   -5.9341781    2.6436517 
C    -2.8741019   -5.2534868    1.4073438 
C    -2.2589950   -4.0135308    1.3385148 
H    -2.5647095   -5.8801756    4.7550934 
H    -3.4880403   -6.9149774    2.6826101 
H    -3.2439204   -5.7159629    0.4877735 
H    -2.1320544   -3.5481202    0.3617474 
C    -3.6093451   -1.5145758    0.1286006 
C    -2.3136099   -1.1017393   -0.1650546 
C    -1.9613292   -0.7934722   -1.5128027 
C    -2.8895581   -0.9153308   -2.5317860 
H    -3.8968881   -1.7634968    1.1550951 
H    -0.9441072   -0.4469699   -1.7270753 
H    -2.6098535   -0.6698300   -3.5623857 
C    -4.2189669   -1.3572135   -2.2626644 
C    -4.5838583   -1.6603582   -0.8988818 
C    -5.9120462   -2.1000133   -0.6180770 
C    -6.8406522   -2.2314399   -1.6367421 
C    -6.4822721   -1.9294718   -2.9795473 
C    -5.2003829   -1.5023810   -3.2861439 
H    -6.1835442   -2.3346647    0.4170276 
H    -7.8574108   -2.5696113   -1.4120375 
H    -7.2280566   -2.0365971   -3.7740015 
H    -4.9255081   -1.2700726   -4.3208514 
