110
Energy =
C    -0.5679703    2.6127732   -1.5327173 
C     0.4625460    2.9489091   -0.6308310 
C     1.7590102    2.3846773   -0.7648519 
H     0.2430578    3.6070602    0.2181809 
Pd    0.2475290    0.7520204   -0.3050595 
P     1.7990465   -0.7993649    0.5601072 
P    -1.7538720   -0.5498158   -0.3337332 
H    -0.2633990    2.1320342   -2.4747090 
H     2.0101732    2.0012741   -1.7630267 
C    -4.4472850    4.4663211   -1.7522127 
C    -3.9434883    3.7231121   -2.8299412 
C    -2.6811492    3.1243067   -2.7394796 
C    -1.8958843    3.2453241   -1.5680169 
C    -2.4113145    4.0189786   -0.4995246 
C    -3.6707642    4.6185701   -0.5906227 
H    -5.4339805    4.9355438   -1.8193027 
H    -4.5319380    3.6138214   -3.7465411 
H    -2.2874502    2.5632056   -3.5942301 
H    -1.8258633    4.1492287    0.4161658 
H    -4.0511422    5.2089443    0.2492404 
C     5.2227544    3.4493373    1.5563183 
C     3.9390520    3.7162483    2.0612886 
C     2.8024837    3.3762361    1.3202930 
C     2.9233870    2.7643139    0.0519133 
C     4.2231698    2.5197799   -0.4519772 
C     5.3603849    2.8542114    0.2929548 
H     6.1094445    3.7111497    2.1423155 
H     3.8251214    4.1855913    3.0438610 
H     1.8108656    3.5681236    1.7423552 
H     4.3382922    2.0660174   -1.4421422 
H     6.3563221    2.6550571   -0.1157188 
Fe   -0.4439191   -3.2983217    1.1126136 
C    -1.6366468   -2.3643784   -0.1944891 
C    -2.4047256   -3.2572844    0.6562565 
H    -3.2112026   -2.9762659    1.3342794 
C    -1.9043995   -4.5888096    0.4760560 
H    -2.2601329   -5.4771799    1.0008667 
C    -0.8341543   -4.5420268   -0.4748119 
H    -0.2308334   -5.3891170   -0.8055201 
C    -0.6693284   -3.1824541   -0.8939119 
C     1.0908852   -2.1165934    1.6027957 
C     1.4859521   -3.5093926    1.6994060 
H     2.2842283   -4.0006645    1.1412917 
C     0.6241763   -4.1548726    2.6449787 
H     0.6499205   -5.2137021    2.9084707 
C    -0.2959288   -3.1811857    3.1530083 
H    -1.0971147   -3.3681323    3.8701751 
C    -0.0122640   -1.9269962    2.5222005 
H     0.0699078   -2.8182405   -1.6054566 
H    -0.5515744   -0.9931239    2.6804066 
C     3.3079564   -0.2963032    1.5912772 
C     4.4018293   -1.2744528    1.1032092 
C     4.2681101   -1.4133263   -0.4183031 
C     2.7946384   -1.7466244   -0.7464413 
H     3.5731989    0.7229373    1.2609143 
H     5.4033023   -0.9033133    1.3809386 
H     4.2691330   -2.2568173    1.5967133 
H     4.5499386   -0.4528472   -0.8838128 
H     4.9451207   -2.1843954   -0.8267568 
H     2.6096833   -2.7980140   -0.4677709 
C    -2.8378152   -0.2135327   -1.8524723 
C    -4.2263187    0.1784229   -1.2762461 
C    -4.3820726   -0.4645680    0.1110062 
C    -3.1041221   -0.1446418    0.9255625 
H    -2.3738927    0.6789559   -2.2958934 
H    -4.2857061    1.2777254   -1.1896623 
H    -5.0393665   -0.1269336   -1.9567883 
H    -5.2890527   -0.1142286    0.6315427 
H    -4.4836053   -1.5582954   -0.0004462 
H    -2.9897660   -0.8345380    1.7816490 
C    -3.0103614    1.3153215    1.4448314 
H    -2.8811424    1.9717584    0.5667021 
C    -2.8269593   -1.3064803   -2.9632116 
H    -1.7883343   -1.6852661   -3.0386904 
C     3.0698089   -0.2862538    3.1193086 
H     2.7288614   -1.2995141    3.4076162 
C     2.3503821   -1.5970362   -2.2331804 
H     1.2635706   -1.3777638   -2.2281392 
C    -3.1743763   -0.6520281   -4.3153890 
H    -3.1691224   -1.4002112   -5.1268846 
H    -4.1807289   -0.1951744   -4.2879938 
H    -2.4499597    0.1397473   -4.5781959 
C    -3.7486853   -2.5097224   -2.6991017 
H    -3.6378583   -3.2506853   -3.5093636 
H    -3.5168574   -3.0169564   -1.7500223 
H    -4.8100491   -2.2046501   -2.6784439 
C    -4.2941658    1.7637035    2.1664913 
H    -4.1590797    2.7782288    2.5801889 
H    -5.1631976    1.8009731    1.4888971 
H    -4.5388548    1.0873189    3.0062919 
C    -1.7926442    1.5183416    2.3587334 
H    -1.7034604    2.5747586    2.6665148 
H    -1.8721556    0.9083919    3.2777602 
H    -0.8512885    1.2429737    1.8394638 
C     1.9860967    0.7251481    3.5300483 
H     1.6814250    0.5699039    4.5790847 
H     2.3629953    1.7562325    3.4325404 
H     1.0845901    0.6431470    2.8984353 
C     4.3790624    0.0054773    3.8791388 
H     4.1844286    0.0658198    4.9641569 
H     5.1362524   -0.7805416    3.7207148 
H     4.8097154    0.9712818    3.5561394 
C     2.5690830   -2.9250306   -2.9837593 
H     2.2328339   -2.8473046   -4.0323121 
H     3.6400296   -3.1972987   -2.9946475 
H     2.0174292   -3.7562449   -2.5086863 
C     3.0309813   -0.4447567   -2.9865839 
H     2.5635122   -0.3085096   -3.9769202 
H     2.9423663    0.5059835   -2.4386267 
H     4.1046794   -0.6425402   -3.1500970 
