116
Energy =
C    -3.4469777    0.2648565   -0.2324121 
C    -2.8529884    0.8654842   -1.3977412 
C    -2.3765078    0.0781281   -2.4507674 
H    -2.7993143    1.9595944   -1.4710575 
Pd   -1.2605896   -0.1328209   -0.1634802 
P     1.0528772    0.3173415   -0.5175251 
P    -0.9709724   -1.4087568    1.8344975 
H    -3.9225713   -0.7072455   -0.4001282 
H    -2.5129304   -1.0094418   -2.3554866 
C    -5.4377773    2.6640820    2.7428080 
C    -4.2603264    3.1352041    2.1387921 
C    -3.6096649    2.3656836    1.1686403 
C    -4.1149884    1.1012023    0.7851808 
C    -5.3091862    0.6475203    1.3923946 
C    -5.9627010    1.4198908    2.3602698 
H    -5.9460156    3.2667478    3.5023504 
H    -3.8467146    4.1069695    2.4283510 
H    -2.6845574    2.7388796    0.7152331 
H    -5.7266194   -0.3214290    1.0964821 
H    -6.8867989    1.0505008    2.8168476 
C    -1.2323985    1.2889594   -6.4044172 
C    -1.2243369   -0.0660829   -6.0372662 
C    -1.5987194   -0.4403610   -4.7437290 
C    -1.9804511    0.5289313   -3.7827499 
C    -2.0193983    1.8884259   -4.1839990 
C    -1.6417090    2.2619984   -5.4756576 
H    -0.9389475    1.5861562   -7.4163850 
H    -0.9285134   -0.8308475   -6.7625223 
H    -1.5899633   -1.4982397   -4.4598862 
H    -2.3587298    2.6589249   -3.4849754 
H    -1.6768255    3.3166856   -5.7670717 
Fe    3.7919110   -0.7643258    1.6044824 
C     2.0594197    0.1569111    0.9965289 
C     1.7974387   -0.8318932    2.0273262 
C     2.5699582   -0.4674652    3.1887289 
C     3.3037041    0.7283187    2.8898573 
C     3.0086262    1.1067471    1.5397761 
C     4.4664676   -2.6633584    1.1967445 
C     4.7547852   -1.7914999    0.0977622 
C     5.5653174   -0.7102841    0.5794551 
C     5.7852981   -0.9198611    1.9823725 
C     5.1041189   -2.1256011    2.3649617 
C     0.8592007   -2.0029812    1.8844733 
H     2.6269935   -1.0221468    4.1262145 
H     4.0001314    1.2356119    3.5598632 
H     3.4252349    1.9696713    1.0182676 
H     3.8797220   -3.5822015    1.1442672 
H     4.4338597   -1.9417303   -0.9315719 
H     5.9525330    0.1201610   -0.0135723 
H     6.3527941   -0.2669118    2.6479380 
H     5.0677504   -2.5481061    3.3708942 
H     0.9710962   -2.3780861    0.8504441 
C     1.2443541   -3.1453489    2.8461932 
H     2.3360382   -3.2820011    2.7817023 
H     0.9977990   -2.9274426    3.8941641 
H     0.7696703   -4.0975770    2.5709136 
C    -1.9731425   -3.0536514    1.7274741 
C    -1.3224075   -0.4465701    3.4569291 
C    -2.0396502   -3.8358248    3.0591906 
H    -2.5298824   -4.8081706    2.8673548 
H    -1.0545082   -4.0432796    3.4978627 
H    -2.6480837   -3.3058956    3.8092968 
C    -2.8425399   -0.3777259    3.7024710 
H    -3.0308267    0.3245631    4.5345770 
H    -3.3840636    0.0031545    2.8259826 
H    -3.2669134   -1.3527625    3.9916757 
C    -3.4189616   -2.7679383    1.2645667 
H    -4.0012048   -3.7047280    1.3359055 
H    -3.9279998   -2.0055217    1.8722355 
H    -3.4346198   -2.4469632    0.2122576 
C    -1.3079367   -3.9046918    0.6171125 
H    -1.9684377   -4.7579357    0.3783668 
H    -1.1744733   -3.3118441   -0.3077032 
H    -0.3310596   -4.3191813    0.9112050 
C    -0.6372901   -1.0335585    4.7076452 
H    -0.9349253   -0.4220165    5.5794064 
H    -0.9434614   -2.0710660    4.9134903 
H     0.4588962   -0.9866433    4.6369128 
C    -0.8000279    0.9896071    3.2134997 
H    -1.3227166    1.4584578    2.3642793 
H    -0.9991350    1.5982140    4.1148274 
H     0.2838694    1.0125880    3.0187527 
H     2.2727327    2.4042789   -0.8751299 
C     0.5214618    4.4678516   -0.0114090 
C     0.4927679    2.9540398    0.2565081 
C     1.1936028    2.1571857   -0.8677351 
C     0.5790535    2.5145450   -2.2328631 
C     0.6024936    4.0286916   -2.4998460 
C    -0.0981577    4.8069892   -1.3760519 
H     1.5705038    4.8230040    0.0144284 
H    -0.0097165    4.9961178    0.8009545 
H    -0.5604858    2.6101769    0.3119322 
H     0.9444389    2.7267699    1.2366076 
H     1.0863015    1.9808964   -3.0539886 
H    -0.4648195    2.1587577   -2.2317657 
H     1.6531274    4.3689757   -2.5842210 
H     0.1259797    4.2344535   -3.4756039 
H    -1.1748203    4.5390505   -1.3627317 
H    -0.0464074    5.8936992   -1.5660984 
H     2.3366466   -1.5052614   -1.2968168 
C     4.0300012   -0.6546719   -3.3967460 
C     3.2682622    0.1554303   -2.3289554 
C     2.0111424   -0.5974446   -1.8428383 
C     1.1084552   -1.0259966   -3.0120109 
C     1.8894557   -1.8332531   -4.0618361 
C     3.1124019   -1.0493787   -4.5653484 
H     4.4472865   -1.5749472   -2.9430259 
H     4.8930523   -0.0673312   -3.7582680 
H     2.9687470    1.1200753   -2.7776140 
H     3.9181904    0.3886723   -1.4670304 
H     0.2517854   -1.6074144   -2.6230579 
H     0.6829406   -0.1289433   -3.4943650 
H     2.2237242   -2.7908796   -3.6155086 
H     1.2211011   -2.0908131   -4.9035432 
H     2.7678127   -0.1344638   -5.0873589 
H     3.6735353   -1.6450187   -5.3070136 
