134
Energy =
C    -1.2262633    1.2524586   -2.8122202 
C    -0.1223084    2.1357664   -2.6043816 
C     1.2068484    1.6669989   -2.6554676 
H    -0.3123954    3.1652906   -2.2779159 
Pd   -0.0780248    0.6219452   -1.0067487 
P     1.6135204    0.6011538    0.6353696 
P    -1.8342138   -0.6484530   -0.1522582 
H    -1.0487425    0.3885354   -3.4660165 
H     1.3743565    0.6923964   -3.1380114 
C    -5.3409492    2.5040838   -2.7089038 
C    -4.3726762    3.2402933   -2.0061592 
C    -3.0372492    2.8283926   -2.0050800 
C    -2.6358384    1.6771242   -2.7229245 
C    -3.6267230    0.9249452   -3.3933260 
C    -4.9655034    1.3365085   -3.3888755 
H    -6.3852365    2.8323487   -2.7124831 
H    -4.6638367    4.1357252   -1.4479801 
H    -2.3007857    3.4004736   -1.4309198 
H    -3.3361105    0.0165364   -3.9322447 
H    -5.7159809    0.7480784   -3.9272404 
C     4.7905220    4.0110886   -2.2788577 
C     4.8592545    2.6278108   -2.5013251 
C     3.6838229    1.8779590   -2.6148890 
C     2.4139722    2.4896592   -2.4942342 
C     2.3623877    3.8844078   -2.2642929 
C     3.5370208    4.6341418   -2.1626511 
H     5.7076642    4.6035600   -2.1985349 
H     5.8306353    2.1316101   -2.5961890 
H     3.7457089    0.8006654   -2.7957453 
H     1.3983841    4.3926730   -2.1727057 
H     3.4755763    5.7131263   -1.9891292 
Fe    0.4591406   -4.2306905    1.9150661 
C    -0.1874393   -2.5103640    1.0596975 
C     1.0662521   -2.2780195    1.7592011 
C     2.0474973   -3.1828525    1.2117741 
H     3.0887855   -3.2423096    1.5312584 
C     1.4331175   -3.9331733    0.1579155 
H     1.9154716   -4.7092157   -0.4393346 
C     0.0609062   -3.5273261    0.0623341 
H    -0.6874731   -3.9438803   -0.6141416 
C    -1.1581002   -5.1717323    2.7337208 
H    -2.2051976   -4.9069041    2.5727370 
C    -0.3077293   -4.6587317    3.7696391 
H    -0.6038995   -3.9505479    4.5455968 
C     0.9931576   -5.2489637    3.6109153 
H     1.8689095   -5.0629861    4.2356076 
C     0.9427812   -6.1316097    2.4807580 
H     1.7750362   -6.7181360    2.0872270 
C    -0.3860848   -6.0843161    1.9386459 
H    -0.7391168   -6.6258134    1.0589260 
C     1.3255126   -1.2371830    2.7887436 
C     1.4619672    0.1315739    2.4233736 
C     1.5935820    1.1094365    3.4310686 
H     1.6879384    2.1640522    3.1583699 
C     1.6330394    0.7454194    4.7845510 
H     1.7323367    1.5204617    5.5515347 
C     1.5754867   -0.6070483    5.1427882 
H     1.6360529   -0.9045877    6.1947890 
C     1.4221733   -1.5819068    4.1484394 
H     1.3490718   -2.6389027    4.4122680 
C    -3.1566941    0.4890816    0.4162535 
C    -2.7200116    1.5294408    1.2669588 
H    -1.6596351    1.5972305    1.5379942 
C    -3.6182266    2.4823044    1.7696701 
C    -4.9735228    2.3788313    1.3978312 
H    -5.6881886    3.1196336    1.7773297 
C    -5.4334011    1.3656754    0.5391091 
C    -4.5087477    0.4243267    0.0446097 
H    -4.8539086   -0.3340485   -0.6623553 
C    -2.5096758   -1.8243670   -1.3954560 
C    -3.6975006   -2.5480034   -1.1666884 
H    -4.2811464   -2.3809500   -0.2546184 
C    -4.1480536   -3.5087343   -2.0913282 
C    -3.3672066   -3.7541203   -3.2373925 
H    -3.7054433   -4.5084494   -3.9585501 
C    -2.1546542   -3.0793685   -3.4724835 
C    -1.7400048   -2.1145964   -2.5370874 
H    -0.7815871   -1.6021985   -2.6778887 
C    -1.5248053   -1.8533667    1.2926025 
H    -2.2950392   -2.6259197    1.1225996 
C    -1.7629102   -1.2494543    2.6830164 
H    -1.4963848   -2.0028308    3.4424627 
H    -1.1535561   -0.3541733    2.8748941 
H    -2.8228922   -0.9764879    2.8068367 
C    -5.4475282   -4.2505014   -1.8682760 
C    -1.3240762   -3.3806616   -4.7007036 
C    -3.1438990    3.5990834    2.6738742 
C    -6.8941368    1.2759678    0.1582107 
C     2.5821308    5.1076670    1.1261065 
C     1.2490108    4.6759332    0.9820914 
C     1.0134088    3.3035744    0.7994831 
C     2.0803322    2.3801712    0.7663599 
C     3.3998653    2.8404398    0.8862988 
C     3.6649755    4.2122426    1.0696367 
H     2.7836321    6.1774265    1.2622795 
H    -0.0167838    2.9453431    0.6751020 
H     4.2364493    2.1392870    0.8185274 
C     5.2462087   -1.9498241   -0.6619364 
C     4.1031596   -1.9046648   -1.4770044 
C     3.0254564   -1.0978126   -1.0647792 
C     3.0906655   -0.3606302    0.1265531 
C     4.2356114   -0.4495855    0.9448349 
C     5.3322660   -1.2345288    0.5525934 
H     6.0923154   -2.5771243   -0.9683963 
H     2.1026036   -1.0733584   -1.6572977 
H     4.2629670    0.0729983    1.9076308 
H    -2.0631188    3.5218238    2.8781880 
H    -3.3365835    4.5874232    2.2178260 
H    -3.6767515    3.5802371    3.6414082 
H    -7.3394451    2.2774851    0.0332036 
H    -7.0291213    0.7170897   -0.7824134 
H    -7.4713056    0.7554651    0.9456124 
H    -6.2523407   -3.8212280   -2.4940643 
H    -5.3545559   -5.3152328   -2.1424680 
H    -5.7737924   -4.1895467   -0.8168562 
H    -1.8180160   -2.9978583   -5.6129517 
H    -0.3261804   -2.9153816   -4.6374448 
H    -1.1899847   -4.4679768   -4.8366129 
C     0.1053289    5.6666066    0.9985597 
H    -0.8684288    5.1596744    0.8932599 
H     0.0897164    6.2435042    1.9405725 
H     0.2023622    6.3967209    0.1742403 
C     5.0876157    4.7039526    1.2138028 
H     5.3730416    4.7672512    2.2808276 
H     5.7977336    4.0222362    0.7172765 
H     5.2115841    5.7103274    0.7796451 
C     4.0017160   -2.7113440   -2.7526149 
H     3.8503667   -2.0537527   -3.6285461 
H     4.9100405   -3.3091071   -2.9307361 
H     3.1386629   -3.4008492   -2.7102114 
C     6.5796531   -1.3148109    1.4045985 
H     7.4098416   -0.7538521    0.9362917 
H     6.4116374   -0.8918405    2.4086181 
H     6.9188738   -2.3589611    1.5203516 
