116
Energy =
C    -3.2958496   -0.8618508   -1.3001683 
C    -3.1379585    0.5237930   -1.3520151 
C    -2.0125560    1.1357529   -2.0261823 
H    -3.8861229    1.1706346   -0.8750904 
Pd   -1.2172647    0.2382353   -0.2078733 
P     1.0264612    0.4034600   -0.8327806 
P    -0.8412453   -0.4726998    2.0448512 
H    -2.5523786   -1.4693735   -1.8371364 
H    -1.6201999    0.5948500   -2.8960420 
C    -6.5793249   -3.1372299    0.2491744 
C    -5.4349285   -3.7784869   -0.2507239 
C    -4.3783262   -3.0196526   -0.7635587 
C    -4.4362792   -1.6041135   -0.7774433 
C    -5.6085833   -0.9742459   -0.2873410 
C    -6.6641504   -1.7333401    0.2208617 
H    -7.4099730   -3.7282634    0.6482664 
H    -5.3709150   -4.8713469   -0.2454997 
H    -3.4874071   -3.5216606   -1.1572825 
H    -5.6941931    0.1166778   -0.3071875 
H    -7.5634233   -1.2325364    0.5934722 
C    -1.8608619    5.4273739   -2.4134494 
C    -2.2759758    4.8479760   -1.2027864 
C    -2.3198881    3.4563241   -1.0668717 
C    -1.9382611    2.6093314   -2.1356704 
C    -1.5122097    3.2084002   -3.3428279 
C    -1.4817474    4.6017937   -3.4829133 
H    -1.8336500    6.5163201   -2.5216403 
H    -2.5681872    5.4858483   -0.3620987 
H    -2.6354188    3.0155963   -0.1132241 
H    -1.2246740    2.5696022   -4.1859776 
H    -1.1617171    5.0455000   -4.4314394 
Fe    3.8473725   -0.7639084    1.1313208 
C     2.2011445    0.3090284    0.5692239 
C     1.9598240   -0.4023648    1.8222636 
C     2.9545548    0.0353423    2.7695295 
C     3.8006598    1.0010025    2.1390517 
C     3.3543861    1.1652895    0.7906702 
C     4.4867032   -2.0320753   -0.3542480 
C     5.5193714   -1.1045952    0.0032420 
C     5.7987364   -1.2753229    1.4011099 
C     4.9335197   -2.3048720    1.9063071 
C     4.1192484   -2.7725306    0.8203869 
C     0.8423879   -1.3699534    2.1348231 
H     3.0727081   -0.3315858    3.7895906 
H     4.6623829    1.4941818    2.5916423 
H     3.8177807    1.8253417    0.0603068 
H     4.0634848   -2.1579704   -1.3506341 
H     6.0021881   -0.3908095   -0.6666276 
H     6.5259130   -0.7073396    1.9842311 
H     4.8975622   -2.6596829    2.9380756 
H     3.3673630   -3.5621796    0.8755503 
H     0.7322963   -2.0459923    1.2719049 
C     1.1787570   -2.2400503    3.3597680 
H     2.2042654   -2.6278261    3.2309705 
H     1.1406865   -1.6838059    4.3082370 
H     0.5045254   -3.1047338    3.4405825 
C    -2.1491080   -1.7381128    2.6632057 
C    -0.7883349    1.0818506    3.1692290 
C    -2.0971728   -2.1123624    4.1594389 
H    -2.8854027   -2.8625926    4.3568905 
H    -1.1389030   -2.5487979    4.4725787 
H    -2.3100000   -1.2423949    4.8020743 
C    -0.0260475    2.1963028    2.4118031 
H    -0.5059891    2.4236229    1.4434390 
H    -0.0456409    3.1150438    3.0268882 
H     1.0267508    1.9389511    2.2251966 
C    -3.5574717   -1.1716459    2.3598118 
H    -3.9247505   -0.5248426    3.1695439 
H    -3.5690074   -0.5919512    1.4244912 
H    -4.2726179   -2.0055222    2.2476368 
C    -1.9199834   -2.9871108    1.7777928 
H    -2.7486814   -3.7009423    1.9329431 
H    -1.9092826   -2.7134089    0.7077757 
H    -0.9781304   -3.5091983    2.0136979 
C    -2.2329548    1.5807295    3.3953174 
H    -2.1892152    2.5782847    3.8691382 
H    -2.7850478    1.6828851    2.4440068 
H    -2.8055696    0.9222413    4.0665825 
C    -0.1026295    0.8283203    4.5271945 
H     0.9649397    0.5922446    4.3996472 
H    -0.1652373    1.7501928    5.1350007 
H    -0.5805809    0.0185361    5.1002668 
H     0.7362683    1.9586075   -2.5952299 
C     3.2237808    3.0622823   -3.3422334 
C     2.8844663    1.7748000   -2.5676409 
C     1.5308815    1.9068830   -1.8259808 
C     1.4067561    3.1983686   -0.9808170 
C     1.8029616    4.4482406   -1.7870708 
C     3.1895474    4.2970816   -2.4290817 
H     2.4897983    3.1967353   -4.1611639 
H     4.2137508    2.9508423   -3.8200252 
H     3.6998309    1.5512258   -1.8571295 
H     2.8490921    0.9234115   -3.2695405 
H     0.3665354    3.2933566   -0.6257153 
H     2.0435163    3.1302203   -0.0814303 
H     1.0521371    4.6181794   -2.5797116 
H     1.7680698    5.3325795   -1.1259708 
H     3.9604523    4.1935554   -1.6387226 
H     3.4479413    5.2044302   -3.0034998 
H     2.4892713   -0.9703424   -2.1521407 
C     1.0204413   -2.1673120   -4.2123412 
C     0.6465270   -0.9807848   -3.3047976 
C     1.4020510   -1.0515806   -1.9626509 
C     1.1239416   -2.3956074   -1.2628079 
C     1.4604059   -3.5938869   -2.1680533 
C     0.7308396   -3.5073962   -3.5176266 
H     2.0964212   -2.1068299   -4.4683474 
H     0.4644405   -2.0950169   -5.1640879 
H    -0.4396796   -1.0211749   -3.0986066 
H     0.8395319   -0.0259392   -3.8253015 
H     1.7118603   -2.4436725   -0.3312455 
H     0.0515375   -2.4308997   -0.9805355 
H     2.5530410   -3.6203692   -2.3472413 
H     1.2077205   -4.5343859   -1.6458797 
H    -0.3613830   -3.6002702   -3.3498245 
H     1.0227019   -4.3509109   -4.1678194 
