124
Energy =
C    -0.6983733    2.4560274   -2.0874092 
C    -1.7413102    1.5437105   -2.4313667 
C    -2.7400647    1.2135699   -1.4911060 
H    -1.7170918    1.0320391   -3.4017054 
Pd   -0.6454159    0.6138372   -0.7552997 
P    -1.0785917   -1.5694156    0.0036563 
P     1.2610018    0.9869334    0.6276555 
H    -0.9569793    3.2386080   -1.3613460 
H    -2.8352063    1.8868044   -0.6247787 
C     2.5136604    3.4421293   -4.7865086 
C     1.9127692    2.1734212   -4.8439138 
C     0.8694022    1.8478048   -3.9719438 
C     0.3956941    2.7840887   -3.0223669 
C     0.9980032    4.0623833   -2.9904090 
C     2.0482051    4.3862300   -3.8586959 
H     3.3351534    3.6939054   -5.4648861 
H     2.2689412    1.4309468   -5.5657010 
H     0.4383948    0.8405171   -4.0031950 
H     0.6319832    4.8137222   -2.2823559 
H     2.4996926    5.3829195   -3.8163187 
C    -6.2683025   -1.1696162   -2.0831301 
C    -6.1843096   -0.2568137   -1.0211610 
C    -5.0214436    0.5016118   -0.8413736 
C    -3.9236738    0.3740921   -1.7248344 
C    -4.0352119   -0.5296830   -2.8065916 
C    -5.1902308   -1.2990210   -2.9763923 
H    -7.1721367   -1.7712560   -2.2225262 
H    -7.0223586   -0.1411377   -0.3264097 
H    -4.9550693    1.2051946   -0.0040515 
H    -3.2110649   -0.6361933   -3.5176871 
H    -5.2556631   -1.9999194   -3.8151521 
Fe    2.5210359   -1.4397211    3.0756640 
C     1.2542844   -0.1783801    2.0440181 
C     0.8170877   -1.5653308    1.9676536 
C     0.5955306   -2.0306037    3.3128659 
C     0.9101725   -0.9684014    4.2217509 
C     1.3335743    0.1626068    3.4506234 
C     4.4794673   -0.9184757    3.3937402 
C     3.9694264   -1.6869067    4.4913517 
C     3.5372153   -2.9574067    3.9816873 
C     3.7840407   -2.9769002    2.5689702 
C     4.3650508   -1.7172937    2.2050938 
C     0.4901256   -2.3354853    0.7152705 
H     0.2787081   -3.0388761    3.5880051 
H     0.8801874   -1.0244831    5.3113939 
H     1.6533678    1.1213420    3.8610635 
H     4.8939525    0.0884560    3.4582881 
H     3.8995754   -1.3558569    5.5291449 
H     3.0800813   -3.7595761    4.5640311 
H     3.5655517   -3.8074961    1.8953041 
H     4.6816579   -1.4240755    1.2036288 
H     1.8186895    2.6464521    2.2959904 
C    -0.5096890    4.0816904    2.8913993 
C    -0.3468492    2.7535683    2.1314334 
C     1.0565162    2.6409209    1.4925726 
C     1.3169981    3.8476289    0.5698338 
C     1.1645656    5.1741623    1.3356467 
C    -0.2231286    5.2898767    1.9858101 
H     0.1891346    4.0924060    3.7512333 
H    -1.5287828    4.1441551    3.3138015 
H    -1.1050307    2.6893421    1.3239882 
H    -0.5379895    1.9022935    2.8064928 
H     2.3149055    3.7902210    0.1053369 
H     0.5890778    3.8194891   -0.2558490 
H     1.9463831    5.2353337    2.1180714 
H     1.3422774    6.0194321    0.6463865 
H    -0.9939801    5.3392015    1.1904563 
H    -0.3031246    6.2296474    2.5604290 
H     3.2274533   -0.1701206    0.0443022 
C     5.4705018    1.4524727    0.3000081 
C     4.0434726    1.6457835    0.8488439 
C     3.0146404    0.9118529   -0.0356721 
C     3.1150679    1.3135212   -1.5163931 
C     4.5493713    1.1280474   -2.0397166 
C     5.5665046    1.8876778   -1.1720698 
H     5.7594850    0.3865447    0.3835239 
H     6.1853178    2.0199475    0.9227730 
H     3.8223502    2.7278501    0.8679060 
H     3.9654664    1.2791852    1.8867628 
H     2.4045573    0.7133313   -2.1107875 
H     2.8101556    2.3674958   -1.6491027 
H     4.8015583    0.0484791   -2.0368280 
H     4.6024020    1.4657919   -3.0899527 
H     5.3671546    2.9753342   -1.2450750 
H     6.5915906    1.7281822   -1.5511941 
H    -1.8733583   -2.5682767    2.0639161 
C    -4.6726911   -2.4128090    2.1531039 
C    -3.7120481   -2.2976188    0.9542433 
C    -2.3203317   -1.8007137    1.4015213 
C    -2.4313089   -0.4800952    2.1990885 
C    -3.3931182   -0.6141041    3.3903533 
C    -4.7797515   -1.0941154    2.9347814 
H    -4.3123893   -3.2107865    2.8320364 
H    -5.6670146   -2.7312868    1.7913043 
H    -4.1345510   -1.5950504    0.2163415 
H    -3.6358184   -3.2784487    0.4558236 
H    -1.4325471   -0.1661391    2.5459851 
H    -2.7929752    0.3124386    1.5147317 
H    -2.9709144   -1.3369500    4.1160718 
H    -3.4672667    0.3546346    3.9171767 
H    -5.2379894   -0.3216743    2.2855762 
H    -5.4513682   -1.2168863    3.8030336 
H    -2.6881148   -2.4640051   -1.4961478 
C    -2.1038603   -5.0579604   -2.1965351 
C    -1.4888347   -4.2139629   -1.0638336 
C    -1.6135685   -2.7074502   -1.3847824 
C    -0.9371701   -2.3781429   -2.7358949 
C    -1.5441605   -3.2295457   -3.8667158 
C    -1.4528282   -4.7320574   -3.5508850 
H    -3.1911950   -4.8528384   -2.2488516 
H    -1.9939149   -6.1319439   -1.9624019 
H    -0.4199749   -4.4808778   -0.9589553 
H    -1.9722418   -4.4548683   -0.1000092 
H    -1.0402365   -1.2991687   -2.9548015 
H     0.1474924   -2.5773999   -2.6756460 
H    -2.6082881   -2.9522965   -3.9989751 
H    -1.0347065   -3.0021983   -4.8204861 
H    -0.3872054   -5.0347194   -3.5244155 
H    -1.9272485   -5.3209847   -4.3558081 
H     0.2262394   -3.3642487    1.0174741 
C     1.6126437   -2.3864071   -0.3377011 
H     1.4560280   -3.2153858   -1.0462301 
H     1.6694150   -1.4515288   -0.9228005 
H     2.5796523   -2.5359016    0.1667076 
