124
Energy =
C     2.7027018   -0.7829184   -1.9743869 
C     2.7160901    0.6432117   -1.9603523 
C     3.0075465    1.3588523   -0.7835105 
H     2.4097468    1.1933844   -2.8585707 
Pd    1.1089841   -0.0139053   -0.5673324 
P    -0.3931174    1.4200395    0.5408383 
P    -0.0246007   -2.0075877   -0.0217376 
H     3.3642032   -1.2820902   -1.2549336 
H     3.4511455    0.7874753    0.0466231 
C     1.7953636   -3.1677177   -5.4448825 
C     1.3766652   -1.8274367   -5.3910712 
C     1.6662481   -1.0404883   -4.2722152 
C     2.3921809   -1.5718712   -3.1801798 
C     2.8242785   -2.9156905   -3.2584239 
C     2.5235359   -3.7076610   -4.3738227 
H     1.5598316   -3.7837874   -6.3184658 
H     0.8113105   -1.3973845   -6.2244543 
H     1.2974537   -0.0096621   -4.2358779 
H     3.4074785   -3.3381545   -2.4330708 
H     2.8662753   -4.7470008   -4.4111377 
C     3.5653362    5.6014030   -0.3423304 
C     3.1042952    5.0892832   -1.5673101 
C     2.9191794    3.7139995   -1.7340548 
C     3.1773655    2.8142660   -0.6720080 
C     3.6718217    3.3443929    0.5432146 
C     3.8601267    4.7209623    0.7095181 
H     3.7107862    6.6791438   -0.2168915 
H     2.8955516    5.7681771   -2.4005497 
H     2.5731366    3.3397798   -2.7020413 
H     3.9108086    2.6598051    1.3641095 
H     4.2436913    5.1074876    1.6593511 
Fe   -2.6184323    0.3315436    3.3166884 
C    -1.7742241    0.6238499    1.4377115 
C    -1.8877343   -0.7952374    1.7404233 
C    -3.2730992   -1.0712991    2.0137208 
C    -4.0256778    0.1385277    1.8695801 
C    -3.1086065    1.1875021    1.5446564 
C    -2.4401336    1.7607740    4.7884813 
C    -3.7384763    1.1563610    4.8104426 
C    -3.5687219   -0.2530715    5.0234088 
C    -2.1647480   -0.5190307    5.1373224 
C    -1.4674006    0.7246441    4.9918546 
C    -0.7985719   -1.8448812    1.7011495 
H    -3.6758630   -2.0455665    2.2992161 
H    -5.0984989    0.2527234    2.0360506 
H    -3.3730587    2.2339860    1.3842573 
H    -2.2359927    2.8237278    4.6583798 
H    -4.6891394    1.6726247    4.6644733 
H    -4.3678222   -0.9956056    5.0658023 
H    -1.7138933   -1.4984380    5.3070326 
H    -0.3873672    0.8620168    5.0528111 
H    -2.0304133    3.0326009   -0.2777179 
C    -2.7924020    2.1785404   -2.8601130 
C    -2.0829870    1.4200942   -1.7255717 
C    -1.3067899    2.3750115   -0.7966287 
C    -0.3299546    3.2473149   -1.6062580 
C    -1.0446057    4.0032041   -2.7396270 
C    -1.8055447    3.0398267   -3.6639495 
H    -3.5789312    2.8277378   -2.4277706 
H    -3.3072518    1.4561213   -3.5194574 
H    -1.3677111    0.6925982   -2.1592942 
H    -2.8161916    0.8382977   -1.1416880 
H     0.2015168    3.9599514   -0.9533736 
H     0.4394081    2.5812436   -2.0417614 
H    -1.7548443    4.7309531   -2.3005655 
H    -0.3045055    4.5920384   -3.3115842 
H    -1.0794823    2.3777205   -4.1783293 
H    -2.3363496    3.6004736   -4.4536680 
H     1.0772763    3.2501288    0.9662544 
C     1.7953736    3.0803377    3.7205942 
C     1.1632441    2.0533014    2.7646214 
C     0.3643791    2.7272669    1.6316006 
C    -0.6611288    3.7424785    2.1731331 
C     0.0071258    4.7646935    3.1120273 
C     0.7550997    4.0728508    4.2628126 
H     2.5776710    3.6455110    3.1803855 
H     2.3001425    2.5523475    4.5500154 
H     0.4747614    1.3951598    3.3234728 
H     1.9425977    1.4007884    2.3279773 
H    -1.1556918    4.2719930    1.3393234 
H    -1.4453465    3.1875343    2.7198823 
H     0.7216473    5.3777224    2.5283988 
H    -0.7572878    5.4583244    3.5066106 
H     0.0311806    3.5350080    4.9052587 
H     1.2455425    4.8240002    4.9071570 
H    -1.2845475   -3.7851000   -1.0660058 
C    -1.8439527   -2.9216252   -3.7082760 
C    -0.8592142   -2.3876083   -2.6562483 
C    -1.3204517   -2.6884633   -1.2149784 
C    -2.7709262   -2.2372860   -0.9623341 
C    -3.7287794   -2.7723830   -2.0435546 
C    -3.2654187   -2.3988662   -3.4590755 
H    -1.8482599   -4.0290864   -3.6770491 
H    -1.4850105   -2.6377673   -4.7135005 
H    -0.7504462   -1.2926478   -2.7749613 
H     0.1400495   -2.8181484   -2.8315358 
H    -3.1056104   -2.5923912    0.0242003 
H    -2.8235162   -1.1353870   -0.9351295 
H    -3.7881227   -3.8758231   -1.9622258 
H    -4.7457207   -2.3871463   -1.8476099 
H    -3.2770813   -1.2959853   -3.5721421 
H    -3.9656366   -2.8026611   -4.2118187 
H     1.2664216   -3.7289203   -0.9843751 
C     1.3680720   -5.9839664    0.5761954 
C     0.4735046   -4.7420912    0.7595748 
C     1.1191465   -3.5042555    0.0925810 
C     2.5165972   -3.2564574    0.7017936 
C     3.4179978   -4.4906477    0.5095520 
C     2.7828474   -5.7467285    1.1280916 
H     1.4269680   -6.2265363   -0.5030673 
H     0.8998377   -6.8534109    1.0714200 
H     0.3446472   -4.5469785    1.8419112 
H    -0.5324067   -4.9432376    0.3494320 
H     2.9793398   -2.3605458    0.2578218 
H     2.4250382   -3.0525849    1.7824246 
H     3.5834520   -4.6598435   -0.5727549 
H     4.4106967   -4.2990600    0.9549339 
H     2.7281617   -5.6211062    2.2275924 
H     3.4194054   -6.6301445    0.9433755 
H    -1.2764225   -2.8163750    1.9196061 
C     0.3285575   -1.5943312    2.7242396 
H    -0.1177132   -1.2487388    3.6675124 
H     0.9067490   -2.5097937    2.9219581 
H     1.0242411   -0.8125037    2.3727532 
