106
Energy =
C    -1.5847794   -2.1384137   -1.0749389 
C    -0.4354635   -2.4773230   -1.8376199 
C     0.6664119   -3.1289111   -1.2124895 
H    -0.3312100   -2.1199990   -2.8706935 
Pd    0.2924206   -1.1269275   -0.2906573 
P     2.4068046   -0.4281557    0.3272403 
P    -0.5971996    0.9049208    0.4922647 
H    -1.7660062   -2.7359280   -0.1682811 
H     0.4278070   -3.7655989   -0.3460739 
C    -5.1184514   -0.1597818   -2.5226516 
C    -3.9056376   -0.0026686   -3.2140920 
C    -2.7449591   -0.6314033   -2.7539736 
C    -2.7687083   -1.4280120   -1.5853054 
C    -3.9922112   -1.5623878   -0.8917025 
C    -5.1557748   -0.9414119   -1.3591038 
H    -6.0274034    0.3288293   -2.8880144 
H    -3.8665117    0.6098238   -4.1211646 
H    -1.8126680   -0.5014943   -3.3117143 
H    -4.0269417   -2.1653101    0.0219138 
H    -6.0935865   -1.0634364   -0.8080658 
C     4.3705600   -4.0997743   -3.1711938 
C     3.7766837   -2.8438560   -3.3840344 
C     2.5699406   -2.5199114   -2.7570901 
C     1.9353478   -3.4446771   -1.8963145 
C     2.5533476   -4.6939443   -1.6736250 
C     3.7542268   -5.0235122   -2.3158204 
H     5.3162460   -4.3504444   -3.6625171 
H     4.2650797   -2.1085730   -4.0318535 
H     2.1349760   -1.5230098   -2.8954936 
H     2.0779309   -5.4179784   -1.0018572 
H     4.2132345   -6.0022652   -2.1415138 
Fe    1.4036770   -1.0603381    3.4458689 
C     2.3699365    0.0754953    2.0635846 
C     1.2943732    0.8393716    2.6842178 
C     1.5803639    0.8624681    4.0981025 
C     2.7886636    0.1343109    4.3450585 
C     3.2798863   -0.3594142    3.0953958 
C     0.8241047   -2.2931468    4.9623476 
C    -0.3187031   -1.8370075    4.2226878 
C    -0.1581031   -2.2612092    2.8597182 
C     1.0877419   -2.9654931    2.7575895 
C     1.6941402   -2.9880651    4.0566326 
C     0.2695047    1.7129926    1.9916259 
H     0.9690460    1.3438663    4.8619697 
H     3.2376578   -0.0449908    5.3236728 
H     4.1689108   -0.9716244    2.9372974 
H     1.0126930   -2.1166805    6.0228508 
H    -1.1556071   -1.2672878    4.6309283 
H    -0.8582993   -2.0945765    2.0391032 
H     1.4928050   -3.4032434    1.8445133 
H     2.6595878   -3.4307464    4.3083524 
H     0.8499972    2.5063648    1.4825461 
C    -0.7033356    2.3888264    2.9727221 
H    -0.1437546    3.0610432    3.6455291 
H    -1.4618077    2.9868370    2.4431696 
H    -1.2383656    1.6458833    3.5858147 
C     2.8706820    1.0820409   -0.5527624 
C     3.1959842    2.3526303   -0.1269483 
C     3.3386297    3.1497304   -1.3085941 
C     3.0948810    2.3112113   -2.3672078 
H     3.3294759    2.6649519    0.9089694 
H     3.5955669    4.2073643   -1.3649610 
H     3.0881774    2.4469843   -3.4472236 
O     2.8035243    1.0542321   -1.9260939 
C     3.8805186   -1.4639279    0.1478107 
C     4.1941724   -2.7568496    0.5189834 
C     5.5247582   -3.0018456    0.0576151 
C     5.9264323   -1.8513012   -0.5763702 
H     3.5492516   -3.4502032    1.0553707 
H     6.1021017   -3.9194193    0.1679421 
H     6.8388224   -1.5548924   -1.0917978 
O     4.9447582   -0.9112046   -0.5277450 
C    -0.3050212    4.0037365   -2.9356978 
C    -0.5145210    4.4828138   -1.6249017 
C    -0.5866519    3.5517715   -0.5756686 
C    -0.4362083    2.1714838   -0.8273489 
C    -0.2104514    1.7287735   -2.1390023 
C    -0.1515028    2.6362435   -3.2138576 
H    -0.2531845    4.7243667   -3.7612059 
H    -0.7736415    3.9147548    0.4408223 
H    -0.0552830    0.6583570   -2.3172046 
C    -5.0851632    0.8613819    1.6319169 
C    -4.1760509    0.0617811    2.3527591 
C    -2.8237186    0.0902030    1.9769671 
C    -2.3832154    0.9044974    0.9141174 
C    -3.3131015    1.6767775    0.1983498 
C    -4.6762952    1.6655571    0.5543866 
H    -6.1461916    0.8430006    1.9098124 
H    -2.1021478   -0.5171155    2.5292373 
H    -2.9866097    2.2841817   -0.6509245 
C    -0.6494723    5.9667471   -1.3644639 
H     0.3044573    6.4881099   -1.5660702 
H    -1.4114479    6.4192421   -2.0233234 
H    -0.9326482    6.1717846   -0.3191284 
C     0.0570385    2.1289192   -4.6232755 
H    -0.8896311    1.7364192   -5.0408547 
H     0.4104230    2.9263446   -5.2973613 
H     0.7890779    1.3022625   -4.6453072 
C    -4.6477193   -0.8013451    3.5023131 
H    -4.9950158   -0.1787258    4.3471765 
H    -5.4979088   -1.4380991    3.1996761 
H    -3.8434187   -1.4587779    3.8724698 
C    -5.6716175    2.5125430   -0.2059837 
H    -6.6555207    2.0178433   -0.2678601 
H    -5.8226553    3.4854554    0.2986375 
H    -5.3213370    2.7171090   -1.2310518 
