112
Energy =
C     2.7372145    1.5317590   -1.3353526 
C     1.7121377    2.1661381   -2.0912620 
C     0.7094002    2.9563728   -1.4852743 
H     1.6276629    1.9349030   -3.1599980 
Pd    0.7137576    0.7907930   -0.6606163 
P    -1.5224045    0.3665641   -0.1033524 
P     1.5485321   -0.8654181    0.7636929 
H     3.0225262    1.9926235   -0.3781791 
H     0.9111743    3.3220017   -0.4671667 
C     5.7610602   -1.0257702   -3.0347067 
C     5.9623570   -0.4017606   -1.7951917 
C     4.9757701    0.4361644   -1.2609998 
C     3.7571422    0.6538864   -1.9419263 
C     3.5729682    0.0223860   -3.1951749 
C     4.5652230   -0.7999853   -3.7367479 
H     6.5326029   -1.6779979   -3.4562266 
H     6.8975975   -0.5578881   -1.2474496 
H     5.1512122    0.9482534   -0.3098051 
H     2.6352591    0.1574606   -3.7453519 
H     4.4023857   -1.2778059   -4.7086236 
C    -2.3187050    5.2486937   -3.5180023 
C    -2.1944482    5.2991717   -2.1210892 
C    -1.2090392    4.5424913   -1.4768403 
C    -0.3344093    3.7047974   -2.2078996 
C    -0.4694336    3.6716974   -3.6165469 
C    -1.4460129    4.4371793   -4.2614747 
H    -3.0820026    5.8463263   -4.0264544 
H    -2.8579696    5.9417493   -1.5330390 
H    -1.0990009    4.6083729   -0.3900612 
H     0.2023065    3.0543149   -4.2210400 
H    -1.5271187    4.4015446   -5.3526343 
Fe   -0.3158895   -3.5517358    2.2381417 
C     0.2895495   -1.6521284    1.8250787 
C    -1.1156691   -1.8382437    1.4843739 
C    -1.7960496   -2.2334834    2.6912140 
C    -0.8418535   -2.3053898    3.7594784 
C     0.4442365   -1.9590789    3.2324197 
C    -1.1971876   -5.3820873    2.4474562 
C    -0.8676621   -5.1503448    1.0711391 
C     0.5462127   -4.9242345    0.9809961 
C     1.0932212   -5.0293831    2.3051163 
C     0.0163573   -5.3112400    3.2104582 
C     2.5490813    0.0947823    1.9725077 
C     1.8613437    1.0078854    2.8039193 
C     2.5675578    1.8520391    3.6675749 
C     3.9710196    1.8001613    3.7110919 
C     4.6594219    0.8969943    2.8894011 
C     3.9557456    0.0477035    2.0200820 
C     2.6225808   -2.1931286    0.1115771 
C     2.6104741   -2.4631186   -1.2684719 
C     3.3741353   -3.5187003   -1.7871267 
C     4.1583073   -4.3032120   -0.9301421 
C     4.1779245   -4.0343046    0.4488950 
C     3.4107465   -2.9864717    0.9717701 
C    -1.7753985   -1.4859581    0.1751859 
H    -2.8598760   -2.4687788    2.7655704 
H    -1.0504366   -2.6124747    4.7859279 
H     1.3806905   -1.9120526    3.7908628 
H    -2.1971609   -5.5618636    2.8464879 
H    -1.5772340   -5.1493986    0.2426423 
H     1.1088854   -4.7015708    0.0726435 
H     2.1417860   -4.9137738    2.5781662 
H     0.1008785   -5.4272063    4.2925977 
H     0.7677611    1.0504221    2.7770832 
H     4.5048596   -0.6486657    1.3807007 
H     2.0066832   -1.8400176   -1.9355824 
H     3.4164230   -2.7900815    2.0488997 
H     2.0211221    2.5520199    4.3084264 
H     5.7528832    0.8470840    2.9236460 
H     3.3630000   -3.7186702   -2.8629494 
H     4.7900328   -4.6475956    1.1184808 
H     4.5244914    2.4599897    4.3869391 
H     4.7579702   -5.1251482   -1.3344981 
H    -2.8616774   -1.6417434    0.2926061 
C    -1.2798270   -2.2934007   -1.0361779 
H    -1.7811644   -1.9792140   -1.9659860 
H    -0.1926786   -2.1757250   -1.1758637 
H    -1.4848098   -3.3619197   -0.8748244 
H    -2.9089943    1.9818091   -1.1640636 
H    -1.3078167    0.5476059    2.2313599 
C    -5.1559402    0.8264234   -2.2939059 
C    -4.1695047    0.2097828   -1.2827750 
C    -2.7883172    0.8999512   -1.3792312 
C    -2.2419384    0.7713776   -2.8209173 
C    -3.2241270    1.3887975   -3.8306468 
C    -4.6154062    0.7436209   -3.7300467 
H    -5.3310371    1.8867894   -2.0249960 
H    -6.1315318    0.3139180   -2.2151809 
H    -4.0499372   -0.8667442   -1.5131365 
H    -4.5847234    0.2749195   -0.2647485 
H    -1.2521300    1.2523488   -2.8953794 
H    -2.0944941   -0.2980635   -3.0635261 
H    -3.3038000    2.4735576   -3.6299783 
H    -2.8188252    1.2871008   -4.8535708 
H    -4.5509574   -0.3200586   -4.0340298 
H    -5.3161575    1.2303309   -4.4315802 
C    -3.5640128    1.3831281    3.5022683 
C    -3.4226453    0.8973316    2.0472994 
C    -1.9771691    1.1140145    1.5530849 
C    -1.5892166    2.6028047    1.6548814 
C    -1.7487936    3.1109463    3.0998329 
C    -3.1680865    2.8625993    3.6361744 
H    -2.9156878    0.7621690    4.1516807 
H    -4.6020592    1.2285754    3.8473090 
H    -4.1188409    1.4702494    1.4062624 
H    -3.7101416   -0.1657819    1.9735568 
H    -0.5481128    2.7454264    1.3122939 
H    -2.2365429    3.1957473    0.9811834 
H    -1.0162139    2.5868443    3.7460892 
H    -1.4984083    4.1861046    3.1474362 
H    -3.8860230    3.4831299    3.0643291 
H    -3.2409608    3.1866878    4.6895298 
