112
Energy =
C     1.2261383    1.1234358   -2.9882940 
C     1.4349520    2.2673005   -2.1643217 
C     2.3738665    2.2422571   -1.1068464 
H     0.7733253    3.1354272   -2.2791368 
Pd    0.7497861    0.6502014   -0.8412593 
P     0.7987595    0.7635121    1.5102917 
P    -0.6577136   -1.2321771   -0.8710563 
H     2.0794465    0.4395228   -3.1091133 
H     3.1670854    1.4807001   -1.1603761 
C    -1.5967745    1.0400667   -6.2399947 
C    -1.9026160    1.7518860   -5.0669878 
C    -0.9905173    1.7894027   -4.0080711 
C     0.2463799    1.1097502   -4.0935169 
C     0.5447418    0.4069163   -5.2814794 
C    -0.3665729    0.3751348   -6.3456182 
H    -2.3133206    1.0082851   -7.0669921 
H    -2.8614664    2.2731001   -4.9770112 
H    -1.2520914    2.3232741   -3.0883760 
H     1.5029115   -0.1173589   -5.3694606 
H    -0.1161608   -0.1739196   -7.2591613 
C     3.3114414    5.4684253    1.5769496 
C     4.2066514    4.4059882    1.3883778 
C     3.8796828    3.3579349    0.5196866 
C     2.6585402    3.3590091   -0.1916854 
C     1.7729163    4.4459789   -0.0019669 
C     2.0923131    5.4831377    0.8775589 
H     3.5617433    6.2855632    2.2614167 
H     5.1605979    4.3869587    1.9253846 
H     4.5751372    2.5214078    0.3890220 
H     0.8198415    4.4767321   -0.5373568 
H     1.3870149    6.3080820    1.0206279 
Fe    0.2730369   -2.0151428    3.7017804 
C    -0.1458460   -0.5341535    2.3864564 
C    -0.4692670   -1.8413457    1.8274801 
C    -1.4419679   -2.4502683    2.6991629 
C    -1.7127997   -1.5542606    3.7834020 
C    -0.9187987   -0.3777693    3.6025135 
C     1.0999951   -3.8209552    4.1563773 
C     2.0938744   -2.9346628    3.6184588 
C     2.1613345   -1.7776475    4.4675485 
C     1.2066277   -1.9449765    5.5230545 
C     0.5486396   -3.2068405    5.3319827 
C     0.0176429    2.3051922    2.1270286 
C    -0.8299867    2.9911587    1.2336673 
C    -1.5268333    4.1355122    1.6427512 
C    -1.3749997    4.6162182    2.9509550 
C    -0.5425320    3.9352379    3.8527417 
C     0.1410945    2.7796470    3.4510405 
C     2.5446104    0.6516198    2.0783794 
C     3.1713465    1.5354629    2.9753435 
C     4.5085963    1.3291483    3.3508970 
C     5.2390569    0.2569357    2.8216739 
C     4.6320038   -0.6068355    1.8947201 
C     3.2975854   -0.4065980    1.5231229 
C     0.0102234   -2.3876635    0.5081201 
H    -1.8720212   -3.4457100    2.5814794 
H    -2.3793573   -1.7511414    4.6248924 
H    -0.9112433    0.4911086    4.2599820 
H     0.8040389   -4.7870003    3.7428055 
H     2.6946088   -3.1085509    2.7243585 
H     2.8138604   -0.9157339    4.3246480 
H     1.0002986   -1.2293223    6.3210039 
H    -0.2455903   -3.6183794    5.9575311 
H    -0.9347903    2.6177774    0.2079626 
H     0.7563044    2.2439419    4.1798374 
H     2.6393616    2.4049930    3.3650510 
H     2.8331909   -1.0780225    0.7911909 
H     1.1016881   -2.2353149    0.4399299 
C    -0.2678864   -3.8920516    0.3561682 
H     0.1450785   -4.4144438    1.2364123 
H    -1.3452899   -4.1178190    0.3029955 
H     0.2149757   -4.3094772   -0.5407540 
H    -2.1832670    4.6544073    0.9365284 
H    -0.4319217    4.2991645    4.8794568 
H     4.9823700    2.0247981    4.0511648 
H     5.2003073   -1.4356151    1.4600380 
H    -1.9106883    5.5154269    3.2721777 
H     6.2813171    0.1007591    3.1176874 
H    -1.2524949   -3.2896282   -1.9484909 
C     0.5342239   -3.7540096   -4.0076449 
C     0.6107326   -2.6993550   -2.8893837 
C    -0.7989948   -2.3634671   -2.3522080 
C    -1.7127624   -1.8621251   -3.4904089 
C    -1.7827049   -2.9085447   -4.6197650 
C    -0.3895731   -3.2910436   -5.1454609 
H     0.1533802   -4.7036917   -3.5821924 
H     1.5483536   -3.9646917   -4.3924213 
H     1.0635051   -1.7699367   -3.2820324 
H     1.2715648   -3.0518153   -2.0753092 
H    -2.7297899   -1.6673678   -3.1116025 
H    -1.3285888   -0.9084209   -3.8863799 
H    -2.2929646   -3.8162245   -4.2401657 
H    -2.4072251   -2.5136433   -5.4411296 
H     0.0619677   -2.4117394   -5.6415542 
H    -0.4753377   -4.0805552   -5.9132597 
H    -2.1817585   -0.4025100    0.7234125 
C    -4.7246106   -1.3608119    0.3749624 
C    -3.4136596   -1.8780729   -0.2483249 
C    -2.3719083   -0.7413377   -0.3142754 
C    -2.9083870    0.4833392   -1.0899592 
C    -4.2175483    0.9857099   -0.4571322 
C    -5.2675694   -0.1359676   -0.3801020 
H    -4.5315828   -1.0878127    1.4312166 
H    -5.4754341   -2.1711821    0.3875362 
H    -3.6149074   -2.2650253   -1.2648304 
H    -3.0241586   -2.7210685    0.3470257 
H    -2.1433609    1.2814184   -1.0873766 
H    -3.0819482    0.2231511   -2.1497115 
H    -4.0019723    1.3616108    0.5628668 
H    -4.6085861    1.8419260   -1.0363123 
H    -5.5519468   -0.4379940   -1.4076095 
H    -6.1879738    0.2341438    0.1055831 
