124
Energy =
C    -0.1962480   -2.3638170   -1.9640193 
C     0.3149551   -1.3509562   -2.8113155 
C     1.6032801   -0.7968489   -2.5903077 
H    -0.3350545   -0.9114518   -3.5774640 
Pd    0.2611387   -0.4409462   -0.7953998 
P     1.3406244    1.3325488    0.2764581 
P    -1.2920741   -0.5316615    0.9564227 
H     0.5421230   -2.9271831   -1.3738188 
H     2.3112218   -1.4206567   -2.0286154 
C    -3.8634759   -4.5464529   -2.4748761 
C    -2.9582487   -4.8860228   -1.4592560 
C    -1.7848643   -4.1446351   -1.2870501 
C    -1.4853586   -3.0487139   -2.1296963 
C    -2.4175753   -2.7084513   -3.1398085 
C    -3.5892375   -3.4518851   -3.3106849 
H    -4.7857655   -5.1206166   -2.6044775 
H    -3.1710269   -5.7286326   -0.7944382 
H    -1.0825650   -4.4155213   -0.4907340 
H    -2.2136440   -1.8767005   -3.8218218 
H    -4.2936638   -3.1791635   -4.1030370 
C     3.5851522    2.0428505   -5.1388809 
C     4.3011550    1.3202278   -4.1742211 
C     3.6350170    0.4196553   -3.3357031 
C     2.2380449    0.2258282   -3.4357687 
C     1.5248315    0.9883638   -4.3914944 
C     2.1935332    1.8776244   -5.2384215 
H     4.1055175    2.7353090   -5.8082381 
H     5.3838944    1.4504672   -4.0805541 
H     4.2055452   -0.1600688   -2.6024471 
H     0.4402304    0.8736220   -4.4900526 
H     1.6271457    2.4438286   -5.9852574 
Fe   -2.7287885    2.1990197   -0.5489804 
C    -2.0264085    1.1291785    1.0274123 
C    -1.3151648    2.3973930    0.8881237 
C    -2.3059066    3.4399775    1.0008525 
C    -3.5948124    2.8474494    1.1896711 
C    -3.4317225    1.4287799    1.2092041 
C    -4.0046991    1.6944401   -2.0739374 
C    -3.8151223    3.1159059   -2.0068475 
C    -2.4124821    3.3870454   -2.1709811 
C    -1.7369361    2.1315538   -2.3365899 
C    -2.7203031    1.0883567   -2.2796457 
C     0.1410290    2.7457461    0.6198870 
H    -2.1060550    4.5097737    0.9198657 
H    -4.5405799    3.3846651    1.2781160 
H    -4.2228558    0.6895889    1.3377993 
H    -4.9568200    1.1715789   -1.9677689 
H    -4.5967621    3.8598461   -1.8426050 
H    -1.9454240    4.3739140   -2.1541074 
H    -0.6643569    1.9789075   -2.4733119 
H    -2.5140147    0.0203451   -2.3655134 
H     0.1427602    3.1630742   -0.4012089 
C     0.6809213    3.8767667    1.5312889 
H     0.2578253    4.8422193    1.2069381 
H     0.3983571    3.7313480    2.5849995 
H     1.7786763    3.9554389    1.4633384 
C     3.3401368   -0.1982889    4.2266347 
C     2.3350434    0.7854252    4.2574343 
C     1.7443135    1.2378543    3.0763327 
C     2.1413196    0.7384726    1.8190530 
C     3.1392288   -0.2744290    1.7661409 
C     3.7155175   -0.7094578    2.9735163 
H     1.9963982    1.1928526    5.2156332 
H     0.9441043    1.9743231    3.1435100 
H     4.4801781   -1.4936523    2.9295740 
C     4.4629551    4.0378005   -1.8411143 
C     3.1471265    3.9649556   -2.3385258 
C     2.2527546    3.0743840   -1.7245984 
C     2.6340569    2.3246465   -0.5922987 
C     3.9493617    2.4309460   -0.1073626 
C     4.8855372    3.2724160   -0.7409200 
H     5.1756316    4.7191727   -2.3215458 
H     1.2403947    2.9849791   -2.1330098 
H     4.2514073    1.8770141    0.7875956 
C     3.9774486   -0.6931947    5.5024900 
H     4.6475934    0.0749767    5.9312198 
H     3.2090301   -0.9141788    6.2645154 
H     4.5706179   -1.6062026    5.3330274 
C     3.5744927   -0.9360884    0.4784220 
H     3.6477955   -0.2225977   -0.3579395 
H     4.5548850   -1.4244739    0.5992811 
H     2.8460180   -1.7168320    0.1908730 
C     2.6990967    4.8600512   -3.4716910 
H     3.4678849    4.9293112   -4.2593468 
H     1.7673562    4.4937290   -3.9320740 
H     2.5163711    5.8860391   -3.1001998 
C     6.3132138    3.3421474   -0.2455027 
H     6.3801793    3.1063859    0.8298319 
H     6.9460081    2.6114388   -0.7845095 
H     6.7508972    4.3407318   -0.4112763 
C     0.0491931   -1.3632064    5.3558924 
C    -0.8572838   -0.3584832    5.0641347 
C    -1.2239988   -0.0974545    3.7203035 
C    -0.6876743   -0.8426691    2.6729804 
H     0.3348136   -1.5687507    6.3933867 
H    -1.2983593    0.2402145    5.8674604 
H    -1.9423828    0.7008940    3.5081212 
C     0.2498215   -1.8975156    2.9465162 
C     0.6243230   -2.1515357    4.3173251 
C     1.5547883   -3.1945299    4.5996357 
C     2.0895387   -3.9699299    3.5842352 
C     1.7034788   -3.7384210    2.2381316 
C     0.8051244   -2.7293980    1.9319129 
H     1.8390836   -3.3751311    5.6418908 
H     2.8016696   -4.7681605    3.8171211 
H     2.1200144   -4.3603146    1.4385834 
H     0.5130946   -2.5507619    0.8911229 
C    -3.7032399   -1.4856549   -0.1111340 
C    -2.7220913   -1.6846084    0.8564945 
C    -2.8402130   -2.7911010    1.7529338 
C    -3.9294251   -3.6412000    1.6752226 
H    -3.6264918   -0.6369955   -0.7909528 
H    -2.0773068   -2.9658094    2.5157416 
H    -4.0104989   -4.4833794    2.3712807 
C    -4.9580945   -3.4434024    0.7097868 
C    -4.8413516   -2.3316939   -0.1986515 
C    -5.8643179   -2.1193232   -1.1697373 
C    -6.9535345   -2.9707329   -1.2450737 
C    -7.0638916   -4.0743000   -0.3546662 
C    -6.0882858   -4.3052542    0.6021310 
H    -5.7673178   -1.2787247   -1.8653742 
H    -7.7335137   -2.8007694   -1.9945180 
H    -7.9289503   -4.7417462   -0.4269144 
H    -6.1760376   -5.1530604    1.2904866 
