124
Energy =
C     1.3397027   -3.3028701    0.0746138 
C     2.2199903   -2.6244235   -0.8132671 
C     3.0750418   -1.5923817   -0.3535144 
H     2.1316413   -2.8016403   -1.8919095 
Pd    0.8879735   -1.0912214    0.0406579 
P     1.0295800    1.2360454   -0.2303187 
P    -1.2784903   -1.0145066    0.9086849 
H     1.6335070   -3.3548889    1.1322915 
H     3.2943663   -1.5680815    0.7245852 
C    -1.5749685   -6.2711382   -1.0379155 
C    -1.0476392   -5.4151965   -2.0198071 
C    -0.0955709   -4.4488991   -1.6777223 
C     0.3575910   -4.3197687   -0.3426129 
C    -0.1643425   -5.2049856    0.6276232 
C    -1.1248133   -6.1640741    0.2859828 
H    -2.3254084   -7.0212996   -1.3076114 
H    -1.3847169   -5.4998423   -3.0585158 
H     0.2868742   -3.7776675   -2.4544270 
H     0.1953169   -5.1389238    1.6590174 
H    -1.5202453   -6.8314832    1.0583873 
C     5.9497422    0.6072026   -2.6806289 
C     5.8396016    0.8086468   -1.2960911 
C     4.8953410    0.0890858   -0.5549241 
C     4.0220807   -0.8301229   -1.1838529 
C     4.1302433   -1.0042612   -2.5840927 
C     5.0940438   -0.3066127   -3.3179595 
H     6.7012328    1.1531441   -3.2603637 
H     6.5006756    1.5174337   -0.7866696 
H     4.8283221    0.2390536    0.5272026 
H     3.4686717   -1.7023029   -3.1058102 
H     5.1764916   -0.4725227   -4.3966494 
Fe   -2.5359433    1.8314305    2.8559267 
C    -1.3340301    0.3835966    2.0681705 
C    -0.8144265    1.7088391    1.7630715 
C    -0.5758756    2.3804610    3.0116301 
C    -0.9473204    1.4990037    4.0797538 
C    -1.4260858    0.2744239    3.5101714 
C    -3.5376721    3.6003786    2.9786384 
C    -3.9816721    2.8585170    1.8326103 
C    -4.4980452    1.5975607    2.2934055 
C    -4.3684364    1.5590495    3.7202308 
C    -3.7792265    2.7978065    4.1450596 
C    -0.4924595    2.1946459    0.3792948 
H    -0.2051947    3.3998322    3.1265936 
H    -0.9145690    1.7357177    5.1447318 
H    -1.7899017   -0.5943963    4.0592090 
H    -3.0870206    4.5945104    2.9664798 
H    -3.9400790    3.2054772    0.7984129 
H    -4.9094975    0.8007207    1.6714733 
H    -4.6540738    0.7277966    4.3671551 
H    -3.5336044    3.0718046    5.1726422 
H    -1.2853197    1.8432316   -0.3004338 
C    -0.3707220    3.7163709    0.2569952 
H    -1.2952016    4.1813762    0.6426025 
H     0.4780479    4.1049271    0.8439429 
H    -0.2410436    4.0182849   -0.7949448 
C     4.4803292    2.7127324    2.5559774 
C     3.6758347    1.5834905    2.8166972 
C     2.6778658    1.2142987    1.9175278 
C     2.4207018    1.9534289    0.7341873 
C     3.1741287    3.1307775    0.4866374 
C     4.2001611    3.4583905    1.4008366 
H     3.8402354    0.9875478    3.7212994 
H     2.0727760    0.3215046    2.1195652 
H     4.7980364    4.3557635    1.1986667 
C     1.0103657    1.9262079   -4.8010093 
C     2.2490350    1.9898070   -4.1334310 
C     2.2791526    1.7789119   -2.7428785 
C     1.0828018    1.5615491   -2.0299999 
C    -0.1401726    1.4735905   -2.7288999 
C    -0.1904944    1.6520698   -4.1225352 
H     0.9818994    2.0976598   -5.8841400 
H     3.2365896    1.8072085   -2.2145726 
H    -1.0729231    1.2554539   -2.1972852 
C     5.5929898    3.1050703    3.4997666 
H     5.2039478    3.2679360    4.5210339 
H     6.3506423    2.3031842    3.5671294 
H     6.0991908    4.0274851    3.1728754 
C     2.9640841    4.0795507   -0.6750434 
H     2.9511647    5.1209081   -0.3092337 
H     3.7955300    3.9992698   -1.3985100 
H     2.0310586    3.8952371   -1.2213817 
C     3.5121970    2.2966248   -4.9066529 
H     4.3636007    2.4813802   -4.2333274 
H     3.7837399    1.4556873   -5.5706126 
H     3.3732861    3.1849438   -5.5478073 
C    -1.5053103    1.5347338   -4.8612287 
H    -1.7283609    0.4755688   -5.0884931 
H    -2.3459993    1.9153628   -4.2571116 
H    -1.4825879    2.0838212   -5.8170632 
C    -2.9335251   -4.7129984    3.2211064 
C    -3.6766206   -4.1162755    2.2184559 
C    -3.1691443   -2.9843602    1.5324479 
C    -1.9232533   -2.4494935    1.8519916 
H    -3.3189658   -5.5911923    3.7504367 
H    -4.6589579   -4.5133824    1.9441997 
H    -3.7700472   -2.5315622    0.7375833 
C    -1.1280314   -3.0467555    2.8937884 
C    -1.6520360   -4.2030878    3.5815206 
C    -0.8649216   -4.8260112    4.5954224 
C     0.3882577   -4.3391468    4.9278130 
C     0.8997790   -3.1931623    4.2641133 
C     0.1569382   -2.5611186    3.2792766 
H    -1.2712097   -5.7048637    5.1078715 
H     0.9830073   -4.8302720    5.7045283 
H     1.8864687   -2.8033656    4.5358093 
H     0.5646824   -1.6748243    2.7797713 
C    -3.2015865    0.3569975   -0.6594953 
C    -2.4165819   -0.7770032   -0.5016219 
C    -2.3711037   -1.7651379   -1.5346165 
C    -3.1134871   -1.5992849   -2.6876058 
H    -3.2265836    1.1024345    0.1395853 
H    -1.7511994   -2.6576730   -1.4033776 
H    -3.0831364   -2.3651800   -3.4705690 
C    -3.9161560   -0.4355892   -2.8892494 
C    -3.9552414    0.5667825   -1.8526945 
C    -4.7380486    1.7409352   -2.0578651 
C    -5.4499538    1.9201734   -3.2335814 
C    -5.4153926    0.9292264   -4.2515688 
C    -4.6667320   -0.2250011   -4.0812731 
H    -4.7733610    2.5011214   -1.2704993 
H    -6.0470598    2.8260132   -3.3801741 
H    -5.9859660    1.0816079   -5.1734467 
H    -4.6387897   -0.9885708   -4.8662722 
