124
Energy =
C     2.7303524    1.0776352    1.1606720 
C     3.2327826    0.5981907   -0.0713077 
C     2.7398001    1.1219209   -1.3047836 
H     3.9064032   -0.2675837   -0.0875384 
Pd    1.0853651    0.1415573   -0.1549676 
P    -0.3856062   -0.1425087   -1.9220779 
P    -0.2918537   -0.7271712    1.5227259 
H     2.2538240    2.0691269    1.1324792 
H     2.3564447    2.1527435   -1.2837115 
C     3.8621775   -0.0987343    5.1372177 
C     3.0046448    0.9909212    4.9266875 
C     2.6408997    1.3537307    3.6251856 
C     3.1243257    0.6363148    2.5058127 
C     3.9840976   -0.4623825    2.7355030 
C     4.3497783   -0.8209759    4.0356457 
H     4.1523232   -0.3837935    6.1537023 
H     2.6210504    1.5625227    5.7781010 
H     1.9744762    2.2087507    3.4679261 
H     4.3731699   -1.0419680    1.8935150 
H     5.0186541   -1.6732399    4.1922593 
C     4.2143378   -0.0944509   -5.1542507 
C     4.1627023   -1.0264721   -4.1040118 
C     3.6535821   -0.6557743   -2.8566334 
C     3.1972653    0.6635822   -2.6277710 
C     3.2160433    1.5784508   -3.7041082 
C     3.7279504    1.2052529   -4.9535219 
H     4.6162083   -0.3878323   -6.1294217 
H     4.5082853   -2.0527592   -4.2636782 
H     3.5906982   -1.4015168   -2.0564832 
H     2.8447860    2.5977771   -3.5479295 
H     3.7510357    1.9335958   -5.7709656 
Fe   -3.7275340   -0.2761343   -0.8987232 
C    -1.9373108   -1.0208016   -1.5312083 
C    -2.3686186   -1.6570695   -0.2880451 
C    -3.6493643   -2.2665748   -0.5602146 
C    -4.0123213   -2.0218636   -1.9207913 
C    -2.9706715   -1.2511258   -2.5188863 
C    -4.0106570    1.7387454   -1.2159448 
C    -5.2100482    1.0086503   -1.4954419 
C    -5.5897824    0.3055202   -0.3032544 
C    -4.6199786    0.6012139    0.7124614 
C    -3.6395189    1.4843589    0.1464950 
C    -1.7018863   -1.9095441    1.0554556 
H    -4.2528411   -2.8061452    0.1732719 
H    -4.9399528   -2.3316638   -2.4050632 
H    -2.9504365   -0.9039297   -3.5519848 
H    -3.4712518    2.3697839   -1.9198784 
H    -5.7291190    0.9700069   -2.4548749 
H    -6.4464673   -0.3629905   -0.1975323 
H    -4.6195878    0.2058889    1.7286680 
H    -2.7672648    1.8899082    0.6589829 
H    -2.4723049   -1.6893766    1.8144280 
C    -1.3439024   -3.4051475    1.2205325 
H    -0.5456323   -3.7245714    0.5349505 
H    -1.0210087   -3.6284469    2.2493653 
H    -2.2371222   -4.0102312    0.9929574 
C     2.5247251   -3.7036119    3.7827332 
C     2.4879944   -3.5472074    2.3871863 
C     1.6512939   -2.5880620    1.8117175 
C     0.7951629   -1.7750383    2.5908056 
C     0.8400488   -1.8930108    4.0057962 
C     1.7101376   -2.8551523    4.5541316 
H     3.1274612   -4.1629433    1.7449034 
H     1.6610410   -2.4628737    0.7212637 
H     1.7557690   -2.9356123    5.6470345 
C    -2.4206348    2.7890959    3.6831225 
C    -2.9378709    1.4921100    3.8687994 
C    -2.2883618    0.4152228    3.2413994 
C    -1.1498541    0.6191102    2.4393003 
C    -0.6688242    1.9301214    2.2641344 
C    -1.2898331    3.0301968    2.8828919 
H    -2.9208317    3.6352676    4.1695013 
H    -2.6841188   -0.5939335    3.3989237 
H     0.1963322    2.0931061    1.6141929 
C     3.4272113   -4.7163230    4.4477334 
H     4.0923664   -4.2287349    5.1833904 
H     2.8360551   -5.4707175    4.9980910 
H     4.0555500   -5.2453607    3.7130238 
C     0.0288260   -1.0459447    4.9596369 
H     0.3951819   -1.1802092    5.9897103 
H     0.0931188    0.0247230    4.7113293 
H    -1.0389796   -1.3271198    4.9469675 
C    -4.1844303    1.2713649    4.6959228 
H    -5.0827951    1.5792173    4.1284066 
H    -4.3072943    0.2108199    4.9709644 
H    -4.1633705    1.8698264    5.6226453 
C    -0.7815352    4.4367117    2.6563647 
H     0.2648674    4.4370489    2.3066340 
H    -1.3920944    4.9512967    1.8910432 
H    -0.8370464    5.0386622    3.5790589 
C     1.4106361   -2.4847422   -5.5546112 
C     1.0947006   -1.1445423   -5.6747760 
C     0.5653776   -0.4293843   -4.5711576 
C     0.3190716   -1.0606939   -3.3533871 
H     1.8179858   -3.0395710   -6.4066458 
H     1.2603361   -0.6174137   -6.6191786 
H     0.3576994    0.6357890   -4.6941369 
C     0.7052063   -2.4388443   -3.1817808 
C     1.2528638   -3.1559922   -4.3076536 
C     1.6582471   -4.5128258   -4.1379852 
C     1.5591658   -5.1416470   -2.9077512 
C     1.0376056   -4.4333714   -1.7945667 
C     0.6137915   -3.1212242   -1.9361292 
H     2.0643463   -5.0493510   -5.0025456 
H     1.8831503   -6.1807580   -2.7908525 
H     0.9687168   -4.9275178   -0.8192442 
H     0.2092984   -2.5868511   -1.0720173 
C    -0.5997563    2.6119131   -1.7764489 
C    -0.9064224    1.5021090   -2.5571550 
C    -1.6667363    1.6848947   -3.7557498 
C    -2.0748615    2.9494204   -4.1419784 
H    -0.0398494    2.4748840   -0.8430444 
H    -1.9319629    0.8252791   -4.3762608 
H    -2.6546354    3.0769367   -5.0626402 
C    -1.7681958    4.1015622   -3.3564204 
C    -1.0151305    3.9240662   -2.1401828 
C    -0.7094456    5.0636466   -1.3395556 
C    -1.1324106    6.3264141   -1.7212563 
C    -1.8768958    6.5015694   -2.9196126 
C    -2.1872538    5.4137630   -3.7207641 
H    -0.1332083    4.9243037   -0.4184432 
H    -0.8931622    7.1967914   -1.1015529 
H    -2.2048028    7.5052320   -3.2090341 
H    -2.7601581    5.5507385   -4.6442379 
