122
Energy =
C     1.2729942   -2.7785939    1.9489715 
C     2.1876421   -1.7854907    2.3462663 
C     1.7931726   -0.7376808    3.2451807 
H     3.1683284   -1.7388318    1.8569609 
Pd    0.5396302   -0.6163383    1.4271373 
P    -0.5831526    1.3840282    1.9581252 
P     0.1158472   -0.8674618   -0.8651139 
H     0.3459988   -2.8733894    2.5373285 
H     1.0630907   -0.9871212    4.0263603 
C     1.9181813   -6.0236468   -0.7869617 
C     0.6420071   -5.7727185   -0.2594067 
C     0.4561115   -4.7245513    0.6468437 
C     1.5326905   -3.8852128    1.0226583 
C     2.8179991   -4.1635708    0.4997846 
C     3.0046143   -5.2262681   -0.3893822 
H     2.0711364   -6.8386057   -1.5009986 
H    -0.2097557   -6.3987703   -0.5439247 
H    -0.5363920   -4.5571806    1.0749689 
H     3.6787945   -3.5574617    0.7947210 
H     4.0032883   -5.4326253   -0.7856854 
C     4.2484939    2.6991348    4.0958292 
C     4.4594787    1.9655696    2.9156076 
C     3.6703038    0.8470688    2.6321819 
C     2.6554198    0.4265316    3.5280921 
C     2.4600535    1.1712176    4.7147198 
C     3.2461948    2.2966330    4.9924318 
H     4.8655611    3.5762445    4.3163707 
H     5.2388738    2.2684081    2.2089585 
H     3.8491981    0.3008607    1.7012763 
H     1.6819731    0.8642928    5.4207878 
H     3.0751963    2.8593363    5.9157585 
Fe   -1.9550390    2.9602681   -2.8034482 
C    -1.2628575    1.5006479   -1.5842728 
C    -1.3678319    2.7576630   -0.8501524 
C    -2.7363620    3.2014339   -0.9461550 
H    -3.1250085    4.1171414   -0.4998913 
C    -3.4836789    2.2278373   -1.6798654 
H    -4.5455963    2.2840770   -1.9229476 
C    -2.5856616    1.1871057   -2.0811715 
H    -2.8548275    0.3301189   -2.6991303 
C    -0.9250012    2.8445066   -4.5679196 
H    -0.2020286    2.0764369   -4.8514563 
C    -0.6240157    4.0777590   -3.8984932 
H     0.3706894    4.4161611   -3.6024841 
C    -1.8555541    4.7931340   -3.7089716 
H    -1.9706268    5.7652929   -3.2260098 
C    -2.9149662    4.0030019   -4.2699641 
H    -3.9756019    4.2606351   -4.2716050 
C    -2.3404500    2.7981452   -4.7998835 
H    -2.8868644    1.9779473   -5.2700718 
C    -0.3108641    3.4248435   -0.0427983 
C     0.1628683    2.8672595    1.1775464 
C     1.3118922    3.4116532    1.7944102 
H     1.7271393    2.9386423    2.6890753 
C     1.9255616    4.5594617    1.2804710 
H     2.8154950    4.9623329    1.7742432 
C     1.3832979    5.1882656    0.1505277 
H     1.8325209    6.1066660   -0.2411780 
C     0.2855867    4.6150836   -0.5026729 
H    -0.1136667    5.0625901   -1.4162006 
C     1.6246105   -1.6716413   -1.5640466 
C     2.8582029   -1.1906034   -1.0897966 
H     2.8808540   -0.3899887   -0.3433488 
C     4.0633466   -1.7311495   -1.5542147 
C     4.0595495   -2.7641444   -2.4987324 
H     4.9997664   -3.1979369   -2.8490871 
C     2.8289693   -3.2616616   -2.9544861 
C     1.6175637   -2.7258435   -2.4946930 
H     0.6797858   -3.1613391   -2.8477843 
C    -1.2653456   -1.9142127   -1.4785945 
C    -1.9936936   -2.6770742   -0.5531485 
H    -1.7153516   -2.6516135    0.5048779 
C    -3.0850573   -3.4532774   -0.9695659 
C    -3.4763436   -3.4661161   -2.3146930 
H    -4.3384379   -4.0549130   -2.6368972 
C    -2.7484614   -2.7059749   -3.2414640 
C    -1.6422131   -1.9491647   -2.8335274 
H    -1.0921315   -1.3763803   -3.5864441 
C    -0.0157053    0.7114719   -1.9139143 
H    -0.1351850    0.3337246   -2.9446393 
C     1.2941226    1.5174767   -1.8566491 
H     1.1196482    2.4925761   -2.3374016 
H     1.6262869    1.7100864   -0.8228820 
H     2.1024556    1.0014064   -2.3975050 
C    -3.8435016   -4.2384604    0.0776192 
F    -4.8532082   -4.9556436   -0.4444374 
F    -3.0166529   -5.0974317    0.7334803 
F    -4.3618449   -3.4054179    1.0182766 
C    -3.1807322   -2.6069460   -4.6891419 
F    -3.7138999   -1.3768421   -4.9327011 
F    -2.1265028   -2.7498530   -5.5247160 
F    -4.1071435   -3.5267279   -5.0132415 
C     5.3465989   -1.2430739   -0.9236762 
F     6.4399677   -1.6154331   -1.6081920 
F     5.3580216    0.1070406   -0.7991773 
F     5.4668077   -1.7430182    0.3465553 
C     2.8225025   -4.4048549   -3.9491132 
F     1.6179701   -5.0212527   -3.9952151 
F     3.1115948   -3.9761244   -5.1969638 
F     3.7482344   -5.3405438   -3.6203676 
C    -0.9429380    2.0169913    6.5647844 
C    -1.1884320    0.7715851    5.9627909 
C    -1.0383416    0.6231641    4.5792805 
C    -0.6383312    1.7141246    3.7777554 
C    -0.4283501    2.9672968    4.3822460 
C    -0.5732909    3.1114324    5.7711634 
H    -1.0517393    2.1343230    7.6478131 
H    -1.4987168   -0.0835304    6.5720205 
H    -1.2458756   -0.3466575    4.1101276 
H    -0.1520744    3.8368318    3.7795386 
H    -0.3979930    4.0894033    6.2314064 
C    -5.2001977    1.2767256    1.4350354 
C    -4.4251423    0.1842148    1.0249263 
C    -3.0279733    0.2418462    1.1331493 
C    -2.3995263    1.3822032    1.6555915 
C    -3.1842032    2.4739526    2.0836557 
C    -4.5768874    2.4217295    1.9617378 
H    -6.2915347    1.2364307    1.3555181 
H    -4.8988693   -0.7199604    0.6306106 
H    -2.4189498   -0.6060425    0.8137299 
H    -2.7058188    3.3609174    2.5128797 
H    -5.1817841    3.2739766    2.2885089 
