124
Energy =
C     3.1328871   -1.0100085    0.0306713 
C     3.1332494    0.2165695   -0.6624169 
C     2.8429354    1.4361733    0.0202742 
H     3.2667487    0.2291276   -1.7513688 
Pd    1.0735858    0.0815796    0.0940892 
P    -0.5633481    1.6591078    0.7266501 
P    -0.5519782   -1.6202710   -0.3358996 
H     3.2013820   -0.9582238    1.1278270 
H     3.1319641    1.4810792    1.0797953 
C     4.2715015   -4.8435908   -1.5446468 
C     3.9959995   -3.7858824   -2.4289754 
C     3.6168552   -2.5337672   -1.9365390 
C     3.4990429   -2.3117901   -0.5436854 
C     3.7883475   -3.3825755    0.3340448 
C     4.1725457   -4.6347577   -0.1606533 
H     4.5690200   -5.8223803   -1.9340104 
H     4.0784007   -3.9412778   -3.5096168 
H     3.3992939   -1.7260599   -2.6420164 
H     3.7159577   -3.2231492    1.4160412 
H     4.3989282   -5.4488473    0.5353333 
C     2.7252268    5.2621693   -1.9587757 
C     2.2900865    4.1105486   -2.6363805 
C     2.3256016    2.8640790   -2.0027116 
C     2.7996600    2.7389110   -0.6761586 
C     3.2528133    3.9017745   -0.0156678 
C     3.2124356    5.1515165   -0.6479706 
H     2.6911700    6.2378817   -2.4539526 
H     1.9124412    4.1879158   -3.6613797 
H     1.9590779    1.9770306   -2.5322299 
H     3.6507597    3.8192119    1.0012775 
H     3.5688416    6.0403920   -0.1169539 
Fe   -0.7050074   -0.3850705    3.4876618 
C    -1.4939977    0.8252034    2.0467962 
C    -2.0221730   -0.5267144    1.8989243 
C    -2.6594125   -0.8668551    3.1453243 
C    -2.5553950    0.2445372    4.0406318 
C    -1.8387973    1.2884964    3.3737647 
C     1.3316857   -0.1403546    3.6272278 
C     0.6966162    0.1212069    4.8855629 
C    -0.0095098   -1.0660396    5.2775907 
C     0.1837471   -2.0575445    4.2579249 
C     1.0170211   -1.4828993    3.2396221 
C    -2.1876939   -1.2888745    0.5938790 
H    -3.1444056   -1.8156819    3.3758167 
H    -2.9275740    0.2802684    5.0660779 
H    -1.5888181    2.2555920    3.8083261 
H     1.9418331    0.5591332    3.0567818 
H     0.7301876    1.0602255    5.4412831 
H    -0.6094808   -1.1852172    6.1816039 
H    -0.2299763   -3.0671925    4.2631650 
H     1.3570038   -1.9731224    2.3297899 
H    -1.8854127    1.0361142   -1.1229698 
C    -2.2905593    3.0545115   -2.8691320 
C    -1.3265991    3.0127805   -1.6685297 
C    -1.8371266    2.0133196   -0.6104798 
C    -3.2768093    2.3214506   -0.1467037 
C    -4.2157519    2.3474809   -1.3683949 
C    -3.7333841    3.3529006   -2.4282164 
H    -2.2619407    2.0746434   -3.3870228 
H    -1.9433984    3.8073299   -3.5994658 
H    -1.2435390    4.0245540   -1.2296370 
H    -0.3119761    2.7295166   -1.9969951 
H    -3.6139677    1.5658591    0.5856479 
H    -3.3193064    3.2964362    0.3678410 
H    -4.2566916    1.3333421   -1.8161924 
H    -5.2433854    2.5896897   -1.0436962 
H    -3.7803725    4.3758116   -2.0052944 
H    -4.4094886    3.3425256   -3.3016625 
H     0.5803077    3.7302987    0.5261617 
C     1.4521532    4.5482718    3.0938143 
C     0.9612845    3.1840412    2.5768862 
C    -0.0030787    3.3262122    1.3772895 
C    -1.1527238    4.3197721    1.6771961 
C    -0.6137833    5.6666502    2.1948562 
C     0.2807276    5.4821375    3.4280562 
H     2.0795809    5.0285943    2.3196524 
H     2.0975639    4.3921262    3.9770650 
H     0.4593996    2.6418431    3.3966451 
H     1.8217114    2.5629140    2.2802194 
H    -1.7452216    4.4953561    0.7658831 
H    -1.8441919    3.8912186    2.4246892 
H    -0.0301530    6.1560449    1.3904262 
H    -1.4645221    6.3339607    2.4213642 
H    -0.3157795    5.0510930    4.2570998 
H     0.6564790    6.4581083    3.7828954 
H    -1.5206823   -0.3149139   -2.0703249 
C    -2.4584610   -1.7692826   -4.1761193 
C    -2.0649447   -2.2620969   -2.7690328 
C    -1.0324073   -1.3064964   -2.1347826 
C     0.2066471   -1.1078235   -3.0390578 
C    -0.2071287   -0.6346157   -4.4432457 
C    -1.2282641   -1.5911639   -5.0804071 
H    -2.9878487   -0.7996489   -4.0824713 
H    -3.1747309   -2.4774139   -4.6295917 
H    -1.6464896   -3.2824889   -2.8436075 
H    -2.9673598   -2.3305391   -2.1369250 
H     0.8807239   -0.3690172   -2.5637068 
H     0.7777222   -2.0504717   -3.1178378 
H    -0.6516261    0.3778935   -4.3658637 
H     0.6882022   -0.5382134   -5.0838322 
H    -0.7507215   -2.5773160   -5.2454392 
H    -1.5346762   -1.2188820   -6.0740690 
H    -1.4172524   -3.8324893   -0.4325334 
C    -0.1745832   -5.4891382    1.3282939 
C    -0.0249318   -3.9627567    1.2083269 
C    -0.3877061   -3.4920067   -0.2128111 
C     0.5378893   -4.1702829   -1.2415390 
C     0.4154444   -5.7029088   -1.1331680 
C     0.7027885   -6.2074104    0.2901541 
H    -1.2374266   -5.7636733    1.1757828 
H     0.0922790   -5.8119435    2.3510655 
H     1.0277914   -3.6904893    1.4063850 
H    -0.6399403   -3.4429787    1.9628828 
H     0.2911865   -3.8575256   -2.2686577 
H     1.5787442   -3.8687874   -1.0554276 
H    -0.6075719   -6.0069696   -1.4322860 
H     1.1094107   -6.1727797   -1.8534112 
H     1.7669049   -6.0191832    0.5288267 
H     0.5515268   -7.3001299    0.3470303 
H    -2.6892977   -0.5837010   -0.0971002 
C    -3.1412858   -2.4894465    0.7490793 
H    -3.3372432   -2.9831752   -0.2149485 
H    -2.7527422   -3.2458273    1.4493378 
H    -4.1092697   -2.1323982    1.1399867 
