86
Energy =
C     1.9769429    1.7247608    1.2534723 
C     0.9468828    2.6200632    0.7959152 
C    -0.2753231    2.7447324    1.4794295 
H     1.0812955    3.1583178   -0.1508799 
Pd    0.2174770    0.5525189    0.5720622 
P    -1.5245367    0.2116793   -1.0560922 
P     1.0129382   -1.6586799    1.3509051 
H     2.0615462    1.5846004    2.3366701 
H    -0.3535516    2.2547564    2.4620912 
C     5.4736947    0.6656545   -1.0329287 
C     4.3748044    1.2643202   -1.6713220 
C     3.2448249    1.6348689   -0.9344238 
C     3.1823122    1.4184797    0.4658470 
C     4.3091009    0.8365915    1.0954927 
C     5.4359133    0.4600052    0.3560037 
H     6.3558121    0.3726967   -1.6109130 
H     4.3987982    1.4412760   -2.7518713 
H     2.3927103    2.0850600   -1.4553752 
H     4.2964887    0.6842469    2.1800981 
H     6.2943036    0.0109300    0.8665329 
C    -3.6304890    5.2426219    0.5121102 
C    -2.4284846    5.3917480   -0.2016202 
C    -1.3214166    4.5950813    0.1041633 
C    -1.3930617    3.6204244    1.1316774 
C    -2.6047590    3.5015543    1.8577431 
C    -3.7115609    4.2990571    1.5488772 
H    -4.4936398    5.8712558    0.2711365 
H    -2.3529986    6.1433678   -0.9941239 
H    -0.3878397    4.7421643   -0.4483997 
H    -2.6685328    2.7708797    2.6719296 
H    -4.6383994    4.1901714    2.1213381 
Fe    0.1577822   -1.6525881   -0.8365620 
C     1.5941876   -2.7392537   -0.0131205 
C     2.1864860   -1.9183805   -1.0517743 
H     2.8258349   -1.0509843   -0.8449457 
C     2.1946284   -2.5998954   -2.3979112 
H     3.1849729   -2.8466086   -2.8162158 
C     1.1575196   -3.7490190   -2.2260040 
H     1.4682637   -4.7623559   -2.5334125 
C     0.6994019   -3.5933767   -0.7763819 
C    -0.8416586   -0.8799408   -2.3612740 
C    -0.9491493   -2.3338181   -2.3541668 
H    -1.8707500   -2.8799135   -2.1111819 
C     0.1541793   -2.9868968   -3.1848295 
H    -0.1670533   -3.5171038   -4.0981953 
C     1.1912896   -1.8351167   -3.3578227 
H     1.5541875   -1.6109982   -4.3752441 
C     0.5693546   -0.6823153   -2.6003818 
H     0.0135667   -4.3215676   -0.3311480 
H     1.0720256    0.2894933   -2.5293026 
C    -2.1243202    1.8026105   -1.9311601 
C    -3.6619066    1.7874257   -1.7196512 
C    -4.1436126    0.3266318   -1.6446112 
C    -3.2413767   -0.4088177   -0.6270931 
H    -1.6787231    2.6505895   -1.3890778 
H    -3.9084891    2.3179997   -0.7834273 
H    -4.1627083    2.3348731   -2.5377182 
H    -5.2060195    0.2597677   -1.3479916 
H    -4.0495781   -0.1541079   -2.6356394 
H    -3.2695469   -1.5015486   -0.7818327 
C    -0.2405816   -2.5518726    2.4234410 
C     0.5849819   -3.5231793    3.3184497 
C     2.1075031   -3.2731042    3.1166533 
C     2.3341293   -1.8009943    2.7041346 
H    -0.6107930   -1.7104661    3.0407057 
H     0.3010495   -3.3807365    4.3752023 
H     0.3404033   -4.5680065    3.0629204 
H     2.6788274   -3.5072442    4.0326443 
H     2.4885297   -3.9324960    2.3182110 
H     3.3173994   -1.6606058    2.2253863 
C     2.1550518   -0.8295085    3.8769570 
H     1.1691109   -0.9365691    4.3617320 
H     2.9217513   -1.0374696    4.6440796 
C    -1.4505781   -3.1648518    1.7054799 
H    -1.2051235   -4.1392741    1.2556653 
H    -2.2805826   -3.3244762    2.4152199 
C    -1.7018987    1.8600363   -3.4041149 
H    -0.6053311    1.8377844   -3.5205259 
H    -2.0695761    2.8012912   -3.8507281 
C    -3.5776637   -0.0816333    0.8384872 
H    -2.8703813   -0.5665006    1.5322075 
H    -4.5969927   -0.4307035    1.0795701 
H    -1.8228062   -2.5009869    0.9021579 
H     2.2663036    0.2208161    3.5716931 
H    -3.5353585    1.0040550    1.0290454 
H    -2.1174153    1.0167069   -3.9821430 
