112
Energy =
C     0.5495435    2.2540036    2.7008813 
C     0.6098247    3.1192199    1.5695620 
C    -0.5374119    3.3344141    0.7643754 
H     1.5795124    3.5125694    1.2403973 
Pd    0.0333975    1.1302031    0.8392355 
P    -0.5923959    0.4126799   -1.2961249 
P     0.4584215   -0.9976222    1.6949561 
H    -0.4253008    2.1683705    3.2016571 
H    -1.5137350    3.1334640    1.2328079 
C     3.8738670    1.2976978    5.2613630 
C     2.5547819    1.1480374    5.7138331 
C     1.4818777    1.4418741    4.8624495 
C     1.7065905    1.8973216    3.5432973 
C     3.0422089    2.0077839    3.0898090 
C     4.1115994    1.7202209    3.9426642 
H     4.7138657    1.0770716    5.9280448 
H     2.3589077    0.8103604    6.7369485 
H     0.4534488    1.3320318    5.2239505 
H     3.2470490    2.3124813    2.0581767 
H     5.1381096    1.8155326    3.5746733 
C    -0.8039739    6.0361037   -2.5630486 
C    -1.9564415    5.6265150   -1.8770312 
C    -1.8549889    4.7123907   -0.8220422 
C    -0.5979396    4.2057043   -0.4175077 
C     0.5510636    4.6046618   -1.1389984 
C     0.4467621    5.5123213   -2.1961591 
H    -0.8792595    6.7514637   -3.3883107 
H    -2.9363488    6.0244484   -2.1604978 
H    -2.7562031    4.4020060   -0.2810236 
H     1.5326795    4.1985025   -0.8748932 
H     1.3464129    5.8123334   -2.7429647 
Fe    0.5550757   -4.0210506   -0.2048700 
C    -0.1654591   -2.3148741    0.5938416 
C    -0.1926130   -2.2579680   -0.8638320 
C    -1.0174874   -3.3471225   -1.3177215 
C    -1.4894818   -4.0737702   -0.1805174 
C    -0.9736292   -3.4493283    0.9973314 
C     1.7241293   -5.0654301   -1.5024029 
C     2.5183224   -4.1365036   -0.7471039 
C     2.3686550   -4.4543855    0.6460032 
C     1.4791294   -5.5740992    0.7523387 
C     1.0797417   -5.9530935   -0.5744112 
C    -0.4091263   -1.3747883    3.2675556 
C    -1.4682073   -0.5442611    3.6829052 
C    -2.2016801   -0.8483137    4.8388295 
C    -1.8819582   -1.9871801    5.5921089 
C    -0.8386312   -2.8303854    5.1774998 
C    -0.1095396   -2.5336715    4.0182968 
C     2.2575750   -1.2318212    1.9922421 
C     2.8124923   -1.4528703    3.2669661 
C     4.1994318   -1.6046698    3.4155171 
C     5.0481503   -1.5206939    2.3044338 
C     4.5056312   -1.2572039    1.0363071 
C     3.1233655   -1.1048848    0.8845980 
C     0.3788289   -1.1732534   -1.7376144 
H    -1.2262562   -3.5962910   -2.3582489 
H    -2.1089436   -4.9718619   -0.2066412 
H    -1.1650728   -3.7655473    2.0222431 
H     1.6172756   -5.0882395   -2.5885661 
H     3.1299044   -3.3316083   -1.1579839 
H     2.8363289   -3.9221881    1.4757834 
H     1.1479260   -6.0454309    1.6795471 
H     0.3915816   -6.7603758   -0.8316555 
H    -1.7228423    0.3414882    3.0905140 
H     0.6853723   -3.2115561    3.6901402 
H     2.1762586   -1.4838790    4.1540513 
H     2.7124185   -0.8928399   -0.1070302 
H     1.4100986   -0.9421762   -1.4202866 
C     0.3824427   -1.5345543   -3.2280136 
H     0.9438721   -2.4754151   -3.3670967 
H    -0.6400243   -1.6891124   -3.6090346 
H     0.8584420   -0.7469959   -3.8319285 
H    -3.0224229   -0.1940659    5.1505418 
H    -0.5946863   -3.7271828    5.7563938 
H     4.6140865   -1.7751100    4.4140289 
H     5.1613809   -1.1691549    0.1637741 
H    -2.4491542   -2.2226779    6.4984739 
H     6.1292641   -1.6433115    2.4255669 
C    -4.8482923   -1.3509722   -1.4581728 
C    -4.2259581   -1.0345939   -2.6834803 
C    -2.9559360   -0.4324136   -2.6556643 
C    -2.3308424   -0.1379810   -1.4256763 
C    -2.9860976   -0.4485063   -0.2204230 
C    -4.2492540   -1.0671550   -0.2185038 
H    -5.8312632   -1.8379142   -1.4741717 
H    -2.4543738   -0.1970522   -3.6002972 
H    -2.4868508   -0.2333796    0.7321865 
C    -4.9163142   -1.3358259   -3.9955828 
H    -5.3217409   -2.3626490   -4.0070525 
H    -5.7676702   -0.6486027   -4.1560979 
H    -4.2290567   -1.2255206   -4.8505083 
C    -4.9365459   -1.4015653    1.0869773 
H    -5.6075821   -2.2698427    0.9785995 
H    -4.2009635   -1.6259715    1.8786136 
H    -5.5519377   -0.5503490    1.4349396 
C     0.4722723    3.3292448   -4.7148136 
C     1.4983929    2.6517251   -4.0256094 
C     1.1371793    1.7781406   -2.9890817 
C    -0.2199931    1.5763957   -2.6511637 
C    -1.2183303    2.3030664   -3.3216538 
C    -0.8819161    3.1788338   -4.3730874 
H     0.7412147    4.0109380   -5.5307207 
H     1.9248973    1.2466854   -2.4405324 
H    -2.2684131    2.1876584   -3.0353963 
C     2.9494643    2.8977859   -4.3729794 
H     3.1093715    2.8839944   -5.4649289 
H     3.2719409    3.8921627   -4.0099531 
H     3.6118646    2.1435037   -3.9168590 
C    -1.9669623    3.9164983   -5.1237531 
H    -2.7565009    4.2651157   -4.4367047 
H    -1.5647061    4.7901453   -5.6621254 
H    -2.4449868    3.2539435   -5.8696780 
