112
Energy =
C     2.2694273    1.9508223    1.2077861 
C     1.6914005    2.9047328    0.3259204 
C     0.3776691    3.3999250    0.5267707 
H     2.2098209    3.1437677   -0.6101833 
Pd    0.3735448    1.1373330    0.3039801 
P    -1.7181775    0.8857948   -0.6713281 
P     0.7910419   -1.1272665    0.6115863 
H     1.8911331    1.9262514    2.2402984 
H    -0.0174382    3.3602532    1.5528946 
C     6.1933858    0.2232197    0.8003156 
C     5.6113685    0.8908325   -0.2908125 
C     4.3273465    1.4330500   -0.1850989 
C     3.6032592    1.3473968    1.0283166 
C     4.2008260    0.6698534    2.1161827 
C     5.4775707    0.1066980    2.0010315 
H     7.1983870   -0.2021819    0.7124032 
H     6.1609356    0.9817226   -1.2331605 
H     3.8859988    1.9271859   -1.0563940 
H     3.6542041    0.5837727    3.0607666 
H     5.9168744   -0.4156753    2.8572496 
C    -1.6682876    6.2607647   -1.9555900 
C    -2.1830273    5.8990245   -0.7009261 
C    -1.5105537    4.9592130    0.0887801 
C    -0.3151109    4.3506140   -0.3609005 
C     0.1769099    4.7084732   -1.6376457 
C    -0.4855822    5.6609394   -2.4178620 
H    -2.1846285    7.0056478   -2.5698978 
H    -3.1047183    6.3591060   -0.3298574 
H    -1.9107330    4.6939670    1.0726508 
H     1.0836789    4.2386360   -2.0307551 
H    -0.0824975    5.9288458   -3.3997028 
Fe   -3.7528031   -2.0258688   -0.3300503 
C    -2.2508521   -0.8298256   -0.9849657 
C    -1.7342555   -2.0402982   -0.3577161 
C    -2.2634236   -3.1593199   -1.1026825 
C    -3.1015139   -2.6613494   -2.1541324 
C    -3.1062952   -1.2325498   -2.0825235 
C    -4.7743543   -1.1100516    1.1935667 
C    -5.6201287   -1.2860659    0.0465651 
C    -5.6758476   -2.6900005   -0.2506736 
C    -4.8614748   -3.3800580    0.7107388 
C    -4.3035566   -2.4017885    1.6019755 
C    -1.6110623    1.5589538   -2.3745316 
C    -2.2244864    2.7574479   -2.7810173 
C    -2.0629260    3.2131171   -4.0990314 
C    -1.2747910    2.4952186   -5.0071220 
C    -0.6336224    1.3140474   -4.5948463 
C    -0.7980476    0.8465524   -3.2870913 
C    -3.1059969    1.7200902    0.1840974 
C    -2.9380038    2.0919935    1.5319743 
C    -4.0005245    2.6609313    2.2493083 
C    -5.2364816    2.8698094    1.6194043 
C    -5.4112104    2.4976873    0.2762787 
C    -4.3552445    1.9180579   -0.4389375 
C    -0.8033020   -2.1339568    0.8285970 
H    -2.0812999   -4.2126866   -0.8880817 
H    -3.6669632   -3.2696879   -2.8621825 
H    -3.6343729   -0.5533238   -2.7536308 
H    -4.5250482   -0.1578065    1.6631526 
H    -6.1288718   -0.4928154   -0.5021346 
H    -6.2233126   -3.1514311   -1.0745412 
H    -4.6813217   -4.4562542    0.7429285 
H    -3.6305293   -2.6048686    2.4377719 
H    -2.8139581    3.3494930   -2.0748583 
H    -0.2982246   -0.0767610   -2.9718421 
H    -1.9703509    1.9227997    2.0187568 
H    -4.5061687    1.6126461   -1.4790484 
H    -1.2579808   -1.5823735    1.6732416 
C    -0.5309191   -3.5819953    1.2617102 
H    -1.4894990   -4.0947665    1.4538850 
H     0.0103845   -4.1378019    0.4772999 
H     0.0671600   -3.6133889    2.1856259 
H    -2.5489457    4.1447541   -4.4056194 
H    -0.0059365    0.7538179   -5.2958456 
H    -3.8630774    2.9421814    3.2985145 
H    -6.3777998    2.6540531   -0.2138620 
H    -1.1520051    2.8562006   -6.0335422 
H    -6.0665425    3.3174633    2.1754588 
C     3.2307460   -2.8312973   -2.9273176 
C     1.8246878   -2.8637581   -2.9767302 
C     1.1066600   -2.3818954   -1.8698188 
C     1.7757811   -1.8701035   -0.7369049 
C     3.1854838   -1.8138692   -0.7287632 
C     3.9251527   -2.3139435   -1.8185773 
H     3.8035517   -3.2209821   -3.7779533 
H     0.0149144   -2.4138444   -1.8981459 
H     3.7190690   -1.3864154    0.1258509 
C     1.1011954   -3.4169337   -4.1851769 
H     1.3197480   -4.4920523   -4.3193348 
H     0.0089500   -3.3003786   -4.0890703 
H     1.4233469   -2.9040801   -5.1091959 
C     5.4373558   -2.2851254   -1.8112973 
H     5.8141689   -1.4302604   -2.4030886 
H     5.8343907   -2.1795809   -0.7894552 
H     5.8541878   -3.2031312   -2.2596166 
C     2.7324866   -1.7980945    4.7573884 
C     1.7072670   -0.8436754    4.5943859 
C     1.1624985   -0.6714305    3.3114147 
C     1.6150111   -1.4418847    2.2196575 
C     2.6099848   -2.4132385    2.4194071 
C     3.1909465   -2.5918406    3.6908510 
H     3.1861480   -1.9254371    5.7479116 
H     0.3838115    0.0866891    3.1522432 
H     2.9495304   -3.0337582    1.5845585 
C     1.2255589   -0.0218101    5.7692689 
H     0.4929966    0.7409635    5.4576174 
H     0.7443752   -0.6651526    6.5282614 
H     2.0670706    0.4920242    6.2670188 
C     4.2703282   -3.6302688    3.9024959 
H     4.9881299   -3.3119732    4.6770968 
H     3.8294238   -4.5883093    4.2366279 
H     4.8268026   -3.8280928    2.9712311 
