94
Energy =
C     0.7087807    1.0281071   -2.8510055 
C     1.1356943    2.0405671   -1.9640320 
C     2.2342031    1.8408699   -1.0715023 
H     0.5330367    2.9514147   -1.8590391 
Pd    0.6320644    0.3635313   -0.6321154 
P     1.3855397   -0.2875282    1.4925337 
P    -1.4258600   -0.7774455   -0.7120966 
H     1.4304381    0.2261944   -3.0721882 
H     3.0392442    1.1653935   -1.3970148 
C    -2.5055639    1.2666629   -5.6952761 
C    -1.6561575    0.1510592   -5.6658000 
C    -0.6184204    0.0871951   -4.7297421 
C    -0.4124021    1.1294709   -3.7957434 
C    -1.2814419    2.2455256   -3.8366076 
C    -2.3104527    2.3134650   -4.7788603 
H    -3.3139352    1.3244114   -6.4314144 
H    -1.7948158   -0.6665582   -6.3805234 
H     0.0530528   -0.7771550   -4.7281990 
H    -1.1519787    3.0712851   -3.1315571 
H    -2.9686385    3.1875434   -4.7973394 
C     3.3971380    4.8775683    1.7492800 
C     2.0356852    4.6555228    1.4840992 
C     1.6505985    3.6597843    0.5808729 
C     2.6180032    2.8652645   -0.0783774 
C     3.9803780    3.0859940    0.2139118 
C     4.3656009    4.0869568    1.1141327 
H     3.6995066    5.6580736    2.4549759 
H     1.2730281    5.2598455    1.9865041 
H     0.5853340    3.4824725    0.3906268 
H     4.7423889    2.4722816   -0.2773025 
H     5.4281094    4.2456149    1.3240047 
Fe   -1.7521420   -0.6045591    2.6983908 
C     0.1309226    0.0953416    2.7472713 
C    -0.1828602   -0.5952448    3.9800262 
H     0.3160296   -1.4856571    4.3636287 
C    -1.3024963    0.0661141    4.5828126 
H    -1.7990887   -0.2398948    5.5055028 
C    -1.6913181    1.1603484    3.7415639 
H    -2.5298241    1.8367369    3.9159787 
C    -0.8127950    1.1868409    2.6108815 
C     2.9331034    0.4394649    2.1620412 
C     4.1720182   -0.0240539    1.6708060 
H     4.2002517   -0.8015478    0.8985099 
C     5.3682686    0.4850586    2.1911215 
H     6.3267462    0.1102513    1.8170390 
C     5.3375118    1.4674920    3.1935975 
H     6.2733314    1.8620857    3.6026313 
C     4.1076163    1.9470959    3.6656546 
H     4.0792760    2.7225758    4.4377025 
C     2.9056207    1.4373805    3.1539656 
H     1.9493818    1.8108678    3.5328999 
C     1.7242852   -2.0904556    1.6266566 
C     2.2948624   -2.6310051    2.7991386 
H     2.5813995   -1.9713008    3.6251238 
C     2.5160070   -4.0108116    2.8990453 
H     2.9533215   -4.4250151    3.8134533 
C     2.1898970   -4.8597759    1.8281762 
H     2.3680096   -5.9369750    1.9108555 
C     1.6530746   -4.3241756    0.6485715 
H     1.4107208   -4.9751553   -0.1978341 
C     1.4265337   -2.9439451    0.5481347 
H     1.0073535   -2.5267932   -0.3720053 
C    -2.2320282   -1.2755927    0.8525003 
C    -3.3812622   -0.6554016    1.4758630 
H    -3.9301746    0.2036229    1.0886474 
C    -3.6588535   -1.3606212    2.6910772 
H    -4.4490618   -1.1145222    3.4026572 
C    -2.6983018   -2.4155530    2.8293094 
H    -2.6281785   -3.1150127    3.6643061 
C    -1.8125353   -2.3695957    1.7041485 
C    -2.6910995    0.3620492   -1.4112381 
C    -2.7424895    1.6716076   -0.8862774 
H    -2.0011089    1.9864366   -0.1430047 
C    -3.7406063    2.5619088   -1.3024085 
H    -3.7816233    3.5713479   -0.8798631 
C    -4.6792531    2.1603265   -2.2655970 
H    -5.4578662    2.8557187   -2.5956432 
C    -4.6069063    0.8732419   -2.8174198 
H    -5.3218027    0.5649306   -3.5870591 
C    -3.6196282   -0.0279730   -2.3926903 
H    -3.5714328   -1.0286797   -2.8319827 
C    -1.4982581   -2.3196077   -1.7049745 
C    -0.4375930   -2.6339828   -2.5763770 
H     0.4201603   -1.9561610   -2.6460894 
C    -0.4669698   -3.8122142   -3.3349194 
H     0.3640552   -4.0492536   -4.0074204 
C    -1.5584170   -4.6869852   -3.2251995 
H    -1.5825942   -5.6091365   -3.8150436 
C    -2.6152732   -4.3856183   -2.3512194 
H    -3.4633437   -5.0719669   -2.2586274 
C    -2.5867934   -3.2101733   -1.5888404 
H    -3.4067701   -2.9860442   -0.8981298 
H    -0.8351298    1.8979118    1.7838468 
H    -0.9720374   -3.0396841    1.5211224 
