122
Energy =
C    -0.0143080   -0.3488476   -3.6106937 
C     0.2950451    0.9998610   -3.2808763 
C     1.5307100    1.3403043   -2.6771085 
H    -0.4839595    1.7650952   -3.3951562 
Pd    0.3142942   -0.0835935   -1.3807153 
P     1.0373372    0.7645386    0.6992530 
P    -0.8475616   -1.9892905   -0.5650351 
H     0.8324620   -1.0239211   -3.8074233 
H     2.3675888    0.6400835   -2.8218722 
C    -3.6972611   -1.3567504   -5.5827028 
C    -3.7097482   -0.4826893   -4.4835426 
C    -2.5185623   -0.1673984   -3.8238359 
C    -1.2912718   -0.7201900   -4.2504956 
C    -1.2925190   -1.6164513   -5.3424903 
C    -2.4858239   -1.9235134   -6.0084995 
H    -4.6303659   -1.6041465   -6.0990736 
H    -4.6555508   -0.0582269   -4.1311025 
H    -2.5328942    0.4816534   -2.9425761 
H    -0.3488036   -2.0595190   -5.6803714 
H    -2.4702957   -2.6082034   -6.8628442 
C     2.7584487    5.3534003   -1.7304077 
C     1.3964263    5.0126701   -1.6767678 
C     0.9858888    3.7096280   -1.9759396 
C     1.9283942    2.7153699   -2.3254781 
C     3.2949875    3.0696098   -2.3693890 
C     3.7030433    4.3785272   -2.0822977 
H     3.0830786    6.3687199   -1.4845114 
H     0.6536968    5.7686519   -1.4007463 
H    -0.0759820    3.4505652   -1.9329230 
H     4.0420751    2.3128111   -2.6300551 
H     4.7661108    4.6356155   -2.1179953 
Fe   -3.5006306    2.1230492    1.0437212 
C    -1.5692860    1.6817559    0.5451231 
C    -2.3327094    0.4589506    0.7575191 
C    -3.4511303    0.4898800   -0.1560616 
H    -4.2337598   -0.2632725   -0.2305438 
C    -3.3828896    1.6967839   -0.9275771 
H    -4.1104313    2.0217031   -1.6738761 
C    -2.2267230    2.4274681   -0.5003723 
H    -1.9177237    3.4090060   -0.8647641 
C    -4.7953180    3.6977877    1.1242994 
H    -5.0223662    4.3663846    0.2917443 
C    -3.7420941    3.8725395    2.0825296 
H    -3.0445820    4.7115743    2.1176207 
C    -3.7762544    2.7569168    2.9848049 
H    -3.1180575    2.6094673    3.8424756 
C    -4.8449141    1.8888918    2.5782661 
H    -5.1281355    0.9466511    3.0509206 
C    -5.4755655    2.4718269    1.4304356 
H    -6.3091223    2.0438369    0.8704170 
C    -1.9532647   -0.6537110    1.6803693 
C    -1.2732265   -1.8209332    1.2245573 
C    -0.8987735   -2.8171348    2.1489212 
H    -0.3364540   -3.6912045    1.8097925 
C    -1.1929590   -2.6825614    3.5108470 
H    -0.8738666   -3.4553941    4.2163886 
C    -1.8771445   -1.5479849    3.9655868 
H    -2.1038697   -1.4307683    5.0293281 
C    -2.2479470   -0.5523837    3.0549970 
H    -2.7819051    0.3370149    3.3944863 
C     1.4334507   -0.4268698    2.0644538 
C     1.2175918   -0.1922993    3.4343378 
H     0.7131135    0.7042455    3.7854568 
C     1.6558915   -1.1223618    4.3864867 
C     2.3368507   -2.2847537    4.0009130 
H     2.6914816   -2.9987137    4.7490120 
C     2.5521260   -2.5190880    2.6383544 
C     2.0986616   -1.6045076    1.6783155 
H     2.2609255   -1.8268585    0.6211053 
C     2.6598398    1.6558365    0.6682439 
C     3.7721254    0.9359588    0.1960844 
H     3.6616173   -0.0948940   -0.1548422 
C     5.0396561    1.5302442    0.1561529 
C     5.2205054    2.8497915    0.5882274 
H     6.2090286    3.3144599    0.5470128 
C     4.1085620    3.5745318    1.0378382 
C     2.8352735    2.9887749    1.0774397 
H     1.9958849    3.6005585    1.4122850 
C    -0.2396551    2.0750983    1.1637599 
H     0.1408735    2.9082136    0.5428231 
C    -0.3212083    2.5668219    2.6195073 
H    -0.9070290    3.4991973    2.6352466 
H    -0.8446494    1.8370515    3.2535342 
H     0.6715100    2.7759133    3.0523138 
C     6.1829029    0.7634757   -0.4711461 
F     7.3849321    1.2364226   -0.0924424 
F     6.1275967   -0.5530692   -0.1644566 
F     6.1195590    0.8527128   -1.8313274 
C     4.2968051    5.0097395    1.4841423 
F     3.1185201    5.6785195    1.5306954 
F     4.8516776    5.0767302    2.7138832 
F     5.1143811    5.6811352    0.6363581 
C     1.3475626   -0.9071758    5.8530295 
F     2.4267675   -1.1395073    6.6276321 
F     0.9134291    0.3499864    6.1014574 
F     0.3690826   -1.7583818    6.2675930 
C     3.2020193   -3.8051566    2.1799891 
F     3.9800440   -3.6084881    1.0887444 
F     3.9650177   -4.3599429    3.1424644 
F     2.2563122   -4.7222977    1.8351441 
C     1.9458466   -5.6492124   -1.2750348 
C     2.3884283   -4.3537672   -1.5742591 
C     1.5516100   -3.2572432   -1.3257933 
C     0.2696295   -3.4424702   -0.7702738 
C    -0.1776357   -4.7539747   -0.4981306 
C     0.6627428   -5.8468879   -0.7407662 
H     2.5980526   -6.5078523   -1.4640207 
H     3.3849183   -4.1941733   -1.9975707 
H     1.8847535   -2.2403138   -1.5768996 
H    -1.1898972   -4.9204728   -0.1145669 
H     0.3115392   -6.8596142   -0.5182229 
C    -4.6478281   -3.8694067   -2.4890361 
C    -3.4288480   -3.8300980   -3.1833938 
C    -2.3038416   -3.2425603   -2.5949029 
C    -2.3870347   -2.6811130   -1.3038688 
C    -3.6027231   -2.7551427   -0.5963515 
C    -4.7288914   -3.3421440   -1.1921201 
H    -5.5279884   -4.3288528   -2.9505161 
H    -3.3501872   -4.2586253   -4.1869078 
H    -1.3512598   -3.2422049   -3.1311446 
H    -3.6664132   -2.3841444    0.4309203 
H    -5.6675861   -3.4012832   -0.6312464 
