122
Energy =
C    -0.6304481   -2.7559063    1.9909811 
C    -0.0225616   -1.9322755    2.9761006 
C    -0.6738507   -0.8044510    3.5270574 
H     1.0261090   -2.1165833    3.2374109 
Pd   -0.3884529   -0.6258244    1.2360682 
P     0.1029784    1.6921648    1.2437730 
P    -0.2404624   -0.9986961   -1.0695857 
H    -1.7299904   -2.7767864    1.9531239 
H    -1.7699037   -0.7662381    3.4385130 
C     1.2632602   -6.2504886    0.3336705 
C     2.0557296   -5.2032139    0.8324404 
C     1.4538027   -4.0632015    1.3746956 
C     0.0436816   -3.9331643    1.4136924 
C    -0.7372346   -4.9941241    0.9053944 
C    -0.1341301   -6.1433792    0.3797372 
H     1.7337911   -7.1380400   -0.0995998 
H     3.1467992   -5.2694895    0.7909295 
H     2.0928547   -3.2681693    1.7743114 
H    -1.8290960   -4.9225123    0.9309529 
H    -0.7642427   -6.9508419   -0.0062636 
C     0.9080129    1.6892674    6.6529188 
C    -0.4243376    1.8235106    6.2360812 
C    -0.9222293    1.0115208    5.2113130 
C    -0.0973351    0.0590337    4.5692705 
C     1.2466872   -0.0584707    4.9978406 
C     1.7382984    0.7413376    6.0318119 
H     1.2983125    2.3161491    7.4612782 
H    -1.0825092    2.5532874    6.7185572 
H    -1.9696171    1.1058267    4.9110858 
H     1.9188215   -0.7782333    4.5224522 
H     2.7789071    0.6301464    6.3513446 
Fe   -3.4509149    2.3719827   -2.3701028 
C    -2.2448490    0.9659784   -1.5235010 
C    -1.7708324    2.2970856   -1.1972273 
C    -2.8536978    2.9942941   -0.5453745 
H    -2.8106492    4.0230939   -0.1861946 
C    -3.9661006    2.0996760   -0.4273429 
H    -4.9377047    2.3417223    0.0066167 
C    -3.5948647    0.8519979   -1.0256159 
H    -4.2360784   -0.0262404   -1.1341758 
C    -4.1410183    1.8134611   -4.2183701 
H    -4.1453557    0.8059684   -4.6387180 
C    -3.0959352    2.7884349   -4.3519166 
H    -2.1645816    2.6573420   -4.9050507 
C    -3.5013355    3.9729425   -3.6478555 
H    -2.9260777    4.8953545   -3.5488331 
C    -4.7974447    3.7307774   -3.0843951 
H    -5.3700507    4.4281522   -2.4701492 
C    -5.1921377    2.3964973   -3.4355162 
H    -6.1192286    1.9027864   -3.1381702 
C    -0.3800351    2.8042393   -1.3404506 
C     0.5804603    2.5892670   -0.3096455 
C     1.8820629    3.1111948   -0.4561671 
H     2.6241576    2.9545731    0.3312462 
C     2.2418912    3.8385956   -1.5982544 
H     3.2590269    4.2281602   -1.6937408 
C     1.3017605    4.0532980   -2.6130608 
H     1.5767739    4.6143765   -3.5113250 
C     0.0056084    3.5393641   -2.4771472 
H    -0.7443279    3.7065636   -3.2538670 
C     1.5191846   -0.6180924   -1.4844164 
C     2.4421830   -1.3676688   -0.7310166 
H     2.0813829   -2.0976281    0.0010431 
C     3.8217207   -1.2048241   -0.9106040 
C     4.3082355   -0.2894432   -1.8495283 
H     5.3844377   -0.1683427   -1.9986515 
C     3.3908525    0.4670948   -2.5952888 
C     2.0079934    0.3218238   -2.4109869 
H     1.3362746    0.9521625   -2.9911921 
C    -0.4318104   -2.7336483   -1.6966127 
C     0.6210754   -3.5093665   -2.2091346 
H     1.6441131   -3.1289901   -2.2363011 
C     0.3776105   -4.8042949   -2.6895286 
C    -0.9159380   -5.3374572   -2.6958116 
H    -1.0999738   -6.3452531   -3.0768315 
C    -1.9648683   -4.5745260   -2.1644975 
C    -1.7240434   -3.2963514   -1.6480099 
H    -2.5593008   -2.7463538   -1.2013239 
C    -1.5055829   -0.1520598   -2.2089653 
H    -2.2348281   -0.9751256   -2.2914380 
C    -0.9934782    0.1250963   -3.6347500 
H    -1.8583026    0.1757891   -4.3128819 
H    -0.4698568    1.0901124   -3.6969244 
H    -0.3246855   -0.6774668   -3.9909040 
C     1.5360328   -5.6272013   -3.2153291 
F     1.3444281   -6.9469560   -2.9824575 
F     1.6961191   -5.4689253   -4.5481517 
F     2.7006849   -5.2690223   -2.6215291 
C    -3.3406549   -5.1881800   -2.0312487 
F    -3.4267827   -5.9255688   -0.8879063 
F    -4.3079502   -4.2427947   -1.9641051 
F    -3.6272618   -6.0115114   -3.0582032 
C     4.7526216   -2.0547237   -0.0763309 
F     4.6583754   -3.3636048   -0.4107145 
F     6.0388125   -1.6830083   -0.1954454 
F     4.4203053   -1.9705451    1.2496120 
C     3.9376173    1.4344057   -3.6263326 
F     2.9564182    2.0190842   -4.3515139 
F     4.6598219    2.4222250   -3.0396022 
F     4.7639388    0.8005142   -4.4870068 
C     4.0420623    2.0481963    3.7075202 
C     3.8652563    1.0260155    2.7621097 
C     2.6576066    0.9269658    2.0600470 
C     1.6166029    1.8545147    2.2850658 
C     1.7909440    2.8593073    3.2546285 
C     3.0007766    2.9530704    3.9579272 
H     4.9847227    2.1296088    4.2585345 
H     4.6612977    0.2999991    2.5700178 
H     2.5253722    0.1279894    1.3239418 
H     0.9828429    3.5595594    3.4806377 
H     3.1221683    3.7348818    4.7145786 
C    -3.1119741    4.5109229    3.0641102 
C    -1.9255111    5.0507547    2.5403121 
C    -0.9501635    4.2065962    1.9933921 
C    -1.1507309    2.8094473    1.9831719 
C    -2.3495518    2.2782898    2.4898712 
C    -3.3259883    3.1252319    3.0316112 
H    -3.8748944    5.1738344    3.4853313 
H    -1.7636288    6.1336289    2.5494474 
H    -0.0424580    4.6346059    1.5541846 
H    -2.5297098    1.2006274    2.4243426 
H    -4.2601291    2.7034847    3.4169853 
