112
Energy =
C    -1.3655552    1.4608657    2.9651840 
C    -1.4101764    2.5582241    2.0687165 
C    -2.0564969    2.4291546    0.8065899 
H    -0.8214854    3.4574733    2.2863585 
Pd   -0.4088212    0.9122720    0.9938899 
P    -0.3363972    0.1746836   -1.2583211 
P     1.0394565   -0.8000650    1.5984611 
H    -2.1199260    0.6727816    2.8142685 
H    -2.8715018    1.6954288    0.7337618 
C     0.3516254    1.3087280    6.9026810 
C    -0.3818672    0.2268049    6.3936171 
C    -0.9184646    0.2917468    5.1039378 
C    -0.7348383    1.4369537    4.2935888 
C     0.0203832    2.5131713    4.8153151 
C     0.5523155    2.4494875    6.1072298 
H     0.7680942    1.2644259    7.9141375 
H    -0.5342710   -0.6695680    7.0028978 
H    -1.4936967   -0.5534678    4.7091343 
H     0.1829084    3.4140450    4.2147454 
H     1.1230333    3.2972980    6.5003766 
C    -2.2074701    5.4390770   -2.2677476 
C    -3.0938232    4.3518198   -2.2805770 
C    -3.0326266    3.3809215   -1.2733670 
C    -2.0757983    3.4707984   -0.2355770 
C    -1.1773571    4.5652933   -0.2448575 
C    -1.2504650    5.5413099   -1.2431520 
H    -2.2605771    6.2047638   -3.0485321 
H    -3.8443439    4.2619423   -3.0729211 
H    -3.7322130    2.5385171   -1.2862799 
H    -0.4085421    4.6516403    0.5300038 
H    -0.5531507    6.3852870   -1.2281845 
Fe   -0.0162744   -4.1799897    0.6492833 
C    -0.0009029   -2.2104770    1.1293463 
C    -0.4558909   -2.3974987   -0.2417381 
C    -1.6154025   -3.2470907   -0.2037847 
C    -1.8935960   -3.5765577    1.1633259 
C    -0.9130855   -2.9383883    1.9902024 
C     0.3219690   -5.7493993   -0.6034022 
C     1.5516939   -5.0630204   -0.3238165 
C     1.7645752   -5.1033649    1.0971660 
C     0.6643614   -5.8029344    1.6947155 
C    -0.2252353   -6.2070233    0.6431761 
C     1.6988480   -1.0986098    3.2754256 
C     2.2454578    0.0055571    3.9593682 
C     2.8532188   -0.1755187    5.2067759 
C     2.9094354   -1.4544859    5.7824239 
C     2.3694377   -2.5562617    5.1018717 
C     1.7700950   -2.3852589    3.8456959 
C     2.5756491   -0.7526659    0.5881539 
C     3.2944653   -1.9226136    0.2764766 
C     4.4884825   -1.8392791   -0.4503161 
C     4.9843410   -0.5853903   -0.8475202 
C     4.2779417    0.5823519   -0.5276236 
C     3.0702143    0.5013615    0.1811917 
C     0.1161750   -1.6733469   -1.4293595 
H    -2.1723535   -3.6029009   -1.0714887 
H    -2.6912536   -4.2339933    1.5142989 
H    -0.8664721   -2.9904581    3.0788057 
H    -0.1284075   -5.8867931   -1.5881435 
H     2.2063244   -4.5960162   -1.0623729 
H     2.6150021   -4.6825992    1.6373086 
H     0.5250735   -5.9890107    2.7612646 
H    -1.1658406   -6.7458977    0.7704723 
H     2.1920172    1.0050275    3.5139647 
H     1.3784748   -3.2476255    3.2972999 
H     2.8968203   -2.8877712    0.5960125 
H     2.5006048    1.4111364    0.4050840 
H     1.2146476   -1.6785525   -1.3343982 
C    -0.2893781   -2.2622467   -2.7859571 
H     0.0469879   -3.3127738   -2.8396694 
H    -1.3824983   -2.2376032   -2.9255443 
H     0.1702802   -1.7037853   -3.6178015 
H     3.2723654    0.6856016    5.7358366 
H     2.4242650   -3.5564846    5.5445497 
H     5.0399450   -2.7524105   -0.6983052 
H     4.6540949    1.5592252   -0.8471193 
H     3.3794264   -1.5933370    6.7615350 
H     5.9210155   -0.5215373   -1.4108886 
C    -4.6415382    0.2294095   -2.9487547 
C    -4.3921293   -0.2876428   -1.6584961 
C    -3.0727179   -0.2709245   -1.1807268 
C    -2.0216271    0.2330029   -1.9783321 
C    -2.2921886    0.7200031   -3.2654440 
C    -3.6132250    0.7346990   -3.7614373 
H    -5.6705327    0.2358328   -3.3282453 
H    -2.8559519   -0.6543290   -0.1758461 
H    -1.4788323    1.1028968   -3.8901945 
C    -5.5241967   -0.8211529   -0.8087994 
H    -6.2020780   -0.0050822   -0.4973426 
H    -6.1337969   -1.5505012   -1.3707054 
H    -5.1467852   -1.3155718    0.1015777 
C    -3.8980664    1.3042184   -5.1332970 
H    -4.9530297    1.1669927   -5.4203480 
H    -3.6744382    2.3868485   -5.1584698 
H    -3.2656681    0.8256241   -5.9019422 
C     2.5171763    2.5128086   -4.0476177 
C     1.3713060    3.1485572   -3.5367899 
C     0.5069020    2.4093370   -2.7054883 
C     0.7792395    1.0583652   -2.4086998 
C     1.9398916    0.4506850   -2.9292761 
C     2.8217385    1.1701980   -3.7521103 
H     3.1945008    3.0814618   -4.6965776 
H    -0.3869908    2.8916644   -2.2957686 
H     2.1870014   -0.5874007   -2.6877888 
C     1.0798752    4.5984165   -3.8533729 
H     1.3078553    5.2405796   -2.9827002 
H     1.6837345    4.9546555   -4.7037659 
H     0.0132127    4.7481831   -4.0900478 
C     4.0740486    0.5238344   -4.3011455 
H     4.9775636    1.0444271   -3.9342759 
H     4.1479139   -0.5339049   -4.0004389 
H     4.0967669    0.5727052   -5.4044922 
