124
Energy =
C     1.6287140    2.3881249    1.5276244 
C     2.2712601    2.2726436    0.2694654 
C     1.5795985    2.5841309   -0.9364631 
H     3.2710392    1.8232813    0.2096443 
Pd    0.5568547    0.9202954    0.1649631 
P    -0.6424957    0.0700180   -1.6534227 
P    -0.1753307   -0.7207579    1.7230601 
H     0.7642763    3.0674274    1.5827754 
H     0.7860828    3.3436855   -0.8777510 
C     3.5212841    1.7437968    5.3307767 
C     2.3844076    2.5573351    5.2223595 
C     1.7556781    2.7232019    3.9831542 
C     2.2661479    2.1004886    2.8217269 
C     3.4012063    1.2660800    2.9500046 
C     4.0185527    1.0880598    4.1914982 
H     4.0148560    1.6134398    6.2991740 
H     1.9836615    3.0638043    6.1062060 
H     0.8672542    3.3597087    3.9039034 
H     3.8046075    0.7478091    2.0751374 
H     4.8969500    0.4392331    4.2715407 
C     3.3047887    2.1435296   -4.8536994 
C     3.6051778    1.2059039   -3.8513653 
C     3.0468412    1.3373883   -2.5758836 
C     2.1728282    2.4072981   -2.2764414 
C     1.8706363    3.3339762   -3.2973375 
C     2.4370931    3.2077694   -4.5713089 
H     3.7349300    2.0368619   -5.8545691 
H     4.2729593    0.3654204   -4.0681322 
H     3.2739805    0.5916994   -1.8057445 
H     1.1834372    4.1599620   -3.0867153 
H     2.1813657    3.9302284   -5.3530143 
Fe   -3.2455160    1.2118023    0.2691610 
C    -2.3268236   -0.1245982   -0.9879418 
C    -2.6248909   -0.7578476    0.2893588 
C    -4.0472644   -0.6560841    0.4861149 
C    -4.6267761    0.0206649   -0.6344268 
C    -3.5727891    0.3561459   -1.5429949 
C    -4.4712111    2.7231383    0.8790237 
C    -3.7187376    2.2167394    1.9900332 
C    -2.3229631    2.3843954    1.6973834 
C    -2.2185270    2.9971416    0.4056444 
C    -3.5434551    3.2046898   -0.1032270 
C    -1.7310459   -1.6368434    1.1389476 
H    -4.5866511   -1.0408569    1.3544499 
H    -5.6824754    0.2665600   -0.7618187 
H    -3.6851219    0.8895886   -2.4883076 
H    -5.5588634    2.7247452    0.7886905 
H    -4.1408354    1.7840597    2.8972723 
H    -1.4924351    2.1122638    2.3489069 
H    -1.2892284    3.2605867   -0.1007158 
H    -3.8057560    3.6415959   -1.0686524 
H    -2.2921273   -1.8605513    2.0617019 
C    -1.4333235   -2.9770249    0.4295731 
H    -0.7352056   -2.8527788   -0.4094578 
H    -1.0004111   -3.7099241    1.1268024 
H    -2.3768629   -3.3870780    0.0305413 
C     3.4074911   -3.7098313    2.1836182 
C     3.4770959   -2.5597910    1.3776696 
C     2.3727917   -1.7093780    1.2745949 
C     1.1676066   -1.9633203    1.9595120 
C     1.0867945   -3.1042717    2.8078183 
C     2.2091305   -3.9492002    2.8833964 
H     4.3975647   -2.3274730    0.8302225 
H     2.4333674   -0.8063561    0.6532486 
H     2.1453019   -4.8354671    3.5271310 
C    -1.2959174    0.1590055    6.1402148 
C    -2.3058096    0.2056112    5.1635283 
C    -1.9486376   -0.0298786    3.8235542 
C    -0.6111697   -0.2761233    3.4605309 
C     0.3875976   -0.2779681    4.4556370 
C     0.0497571   -0.0892455    5.8081050 
H    -1.5662316    0.3032686    7.1935081 
H    -2.7271244   -0.0244834    3.0550168 
H     1.4304169   -0.4782053    4.1872071 
C     4.5712219   -4.6662929    2.3040199 
H     4.8370939   -4.8365289    3.3624483 
H     4.3136281   -5.6512551    1.8731689 
H     5.4640981   -4.2883649    1.7801349 
C    -0.1090548   -3.4416651    3.6745417 
H     0.0770090   -3.1194408    4.7153998 
H    -1.0343691   -2.9423817    3.3551585 
H    -0.2854054   -4.5305305    3.6875051 
C    -3.7411848    0.5045346    5.5380776 
H    -3.9266428    1.5956356    5.5349036 
H    -4.4487840    0.0440862    4.8274207 
H    -3.9810725    0.1361459    6.5494309 
C     1.0941485   -0.1906926    6.8975617 
H     0.7966481   -0.9397587    7.6532756 
H     2.0759251   -0.4778856    6.4902200 
H     1.2145796    0.7726261    7.4249527 
C     1.0622037   -4.0172181   -3.1167535 
C     1.8054302   -3.1428890   -2.3440326 
C     1.2418408   -1.9049825   -1.9507189 
C    -0.0475928   -1.5363784   -2.3251878 
H     1.4774504   -4.9869802   -3.4125692 
H     2.8158781   -3.4046285   -2.0152106 
H     1.8170901   -1.2267503   -1.3164337 
C    -0.8279392   -2.4063184   -3.1692156 
C    -0.2531173   -3.6764076   -3.5519500 
C    -1.0111167   -4.5665190   -4.3687944 
C    -2.2784430   -4.2247490   -4.8091343 
C    -2.8353965   -2.9696753   -4.4523671 
C    -2.1283576   -2.0844335   -3.6535609 
H    -0.5668932   -5.5282422   -4.6479333 
H    -2.8489927   -4.9157256   -5.4379743 
H    -3.8315594   -2.6952165   -4.8144927 
H    -2.5698802   -1.1189660   -3.4020447 
C    -0.1908560    0.7683885   -4.3290713 
C    -0.8095498    1.1314602   -3.1368248 
C    -1.4907556    2.3840143   -3.0522068 
C    -1.5617528    3.2221701   -4.1495886 
H     0.3583556   -0.1750547   -4.4057412 
H    -1.9716439    2.6611823   -2.1134028 
H    -2.0932333    4.1776158   -4.0748758 
C    -0.9419589    2.8719588   -5.3858853 
C    -0.2455544    1.6135721   -5.4728828 
C     0.3943732    1.2580339   -6.6960222 
C     0.3558264    2.1124325   -7.7858339 
C    -0.3275464    3.3558974   -7.6990745 
C    -0.9658542    3.7266981   -6.5251971 
H     0.9249620    0.3017221   -6.7557461 
H     0.8521644    1.8327696   -8.7208609 
H    -0.3503545    4.0215606   -8.5681852 
H    -1.4944374    4.6841599   -6.4601890 
