142
Energy =
C     2.9592461    0.4979975   -2.1107470 
C     3.4082508    1.1815748   -0.9638517 
C     3.6789051    0.4646329    0.2431903 
H     3.5042315    2.2748591   -0.9703636 
Pd    1.4980777    0.3556878   -0.2142169 
P     0.9707620   -1.0286924    1.5988343 
P    -0.5330135    0.5300435   -1.4044866 
H     3.0390994   -0.5988304   -2.0870668 
H     3.9817367   -0.5875727    0.1325042 
C     2.3678244    2.0124372   -6.0772814 
C     2.3899593    0.6315323   -5.8299623 
C     2.5716018    0.1589006   -4.5260810 
C     2.7444141    1.0562061   -3.4440003 
C     2.7522066    2.4455788   -3.7170133 
C     2.5556401    2.9159179   -5.0164079 
H     2.2202819    2.3858797   -7.0959066 
H     2.2642529   -0.0777680   -6.6543437 
H     2.5759636   -0.9189295   -4.3326654 
H     2.9158925    3.1620900   -2.9088160 
H     2.5545897    3.9933119   -5.2077102 
C     5.3293987    2.4836174    3.6610544 
C     4.1741416    2.9914954    3.0448785 
C     3.6224800    2.3344891    1.9400032 
C     4.2108234    1.1504014    1.4390272 
C     5.3621994    0.6411244    2.0763067 
C     5.9202344    1.3086927    3.1737707 
H     5.7536318    2.9894219    4.5335651 
H     3.6983880    3.8965355    3.4359284 
H     2.7092466    2.7208252    1.4699514 
H     5.8207758   -0.2831191    1.7090371 
H     6.8122823    0.9020323    3.6606811 
Fe   -1.8466683   -4.5067493   -0.0646168 
C    -0.8857775   -2.7965368    0.4413232 
C    -1.5946577   -2.6005585   -0.8223921 
C    -2.9878811   -2.9044406   -0.5721114 
H    -3.7719442   -2.8735465   -1.3305551 
C    -3.1611223   -3.2239952    0.8096544 
H    -4.0997174   -3.4932640    1.2958412 
C    -1.8749969   -3.1764513    1.4304378 
H    -1.6640091   -3.4261862    2.4711734 
C    -0.5350128   -6.0494680    0.2292726 
H     0.4625051   -5.9784373    0.6683956 
C    -0.8559111   -5.9311496   -1.1647604 
H    -0.1416185   -5.7670432   -1.9740928 
C    -2.2781223   -6.0817183   -1.3067545 
H    -2.8440407   -6.0484715   -2.2398648 
C    -2.8326083   -6.2936040   -0.0005696 
H    -3.8904724   -6.4252323    0.2337250 
C    -1.7555161   -6.2749166    0.9486357 
H    -1.8518128   -6.3857273    2.0305006 
C    -1.1540560   -2.1869471   -2.1933609 
C    -0.7557916   -0.8693177   -2.5800280 
C    -0.4180176   -0.6223386   -3.9301835 
H    -0.0847147    0.3743441   -4.2246541 
C    -0.5052691   -1.6179120   -4.9089182 
H    -0.2354755   -1.3847694   -5.9439865 
C    -0.9474486   -2.8945695   -4.5485009 
H    -1.0437099   -3.6868466   -5.2980055 
C    -1.2611324   -3.1592239   -3.2113912 
H    -1.6035906   -4.1514938   -2.9147190 
C    -0.4777586    2.0961349   -2.3838030 
C    -1.3871826    2.3689882   -3.4246839 
H    -2.0819956    1.5942114   -3.7676485 
C    -1.4425444    3.6368338   -4.0221617 
C    -0.5856333    4.6511447   -3.5288274 
C     0.2911268    4.4253065   -2.4460767 
C     0.3315414    3.1342591   -1.8931861 
H     1.0028819    2.9372801   -1.0456977 
C    -2.1350247    0.8782349   -0.5872184 
C    -2.1384346    1.9486153    0.3293468 
H    -1.1870878    2.3870651    0.6582791 
C    -3.3389381    2.4963479    0.8052984 
C    -4.5508315    1.9160469    0.3597585 
C    -4.5723353    0.8159845   -0.5270809 
C    -3.3511116    0.3238115   -1.0156248 
H    -3.3565838   -0.4863134   -1.7500412 
C     2.4378860   -1.3027606    2.6854630 
C     3.3773490   -2.3231797    2.4809028 
H     3.2829686   -3.0265853    1.6504176 
C     4.4611772   -2.4724732    3.3643123 
C     4.5973392   -1.6407291    4.4787822 
H     5.4310013   -1.7761827    5.1722811 
C     3.6592609   -0.6156144    4.6810110 
C     2.6093041   -0.4240443    3.7789902 
H     1.9035934    0.3933947    3.9515322 
C    -0.3320350   -1.0482458    2.9245622 
C    -1.5843422   -0.4301776    2.7783381 
H    -1.7928093    0.2136471    1.9197532 
C    -2.6040498   -0.6885438    3.7150771 
C    -2.3913056   -1.5501601    4.7956475 
H    -3.1930093   -1.7529078    5.5094809 
C    -1.1406698   -2.1658226    4.9390974 
C    -0.1198889   -1.9168230    4.0178884 
H     0.8341664   -2.4333729    4.1493201 
C     0.5906731   -2.7080882    0.7544521 
H     0.8040442   -3.4524563    1.5441642 
C     1.4888605   -2.9674437   -0.4653059 
H     1.2383477   -3.9561349   -0.8837100 
H     1.3138713   -2.2170460   -1.2537845 
H     2.5612779   -2.9526196   -0.2122155 
C    -3.9752708   -0.0803438    3.5084026 
F    -4.8514797   -0.4614018    4.4615676 
F    -3.9249754    1.2723468    3.5192745 
F    -4.4896730   -0.4591260    2.3097190 
C    -0.9257264   -3.2134550    6.0095257 
F     0.3612177   -3.2505003    6.4225073 
F    -1.7096358   -3.0067972    7.0862274 
F    -1.2239919   -4.4474871    5.5185028 
C     5.5294635   -3.4917108    3.0387474 
F     6.4184728   -2.9710724    2.1463393 
F     5.0039060   -4.6008809    2.4658365 
F     6.2263033   -3.8704193    4.1270375 
C     3.7640327    0.2492786    5.9198910 
F     5.0536622    0.5353080    6.2191332 
F     3.1014312    1.4211382    5.7763250 
F     3.2358300   -0.3840489    6.9930468 
C    -2.4076178    3.9459612   -5.1417344 
H    -2.9048549    4.9150627   -4.9696163 
H    -1.8811640    4.0234262   -6.1113498 
H    -3.1715374    3.1576232   -5.2370676 
C     1.1597745    5.5388688   -1.9111520 
H     1.4327999    5.3591413   -0.8579810 
H     2.1018729    5.6273518   -2.4866148 
H     0.6404993    6.5079829   -1.9879916 
C    -3.3415899    3.6527424    1.7760304 
H    -2.4501366    3.6230221    2.4238507 
H    -3.3325716    4.6208518    1.2409408 
H    -4.2403126    3.6213784    2.4112174 
C    -5.8891199    0.1740881   -0.8883320 
H    -6.5957665    0.9031418   -1.3210929 
H    -5.7476223   -0.6456409   -1.6113179 
H    -6.3679452   -0.2332218    0.0199739 
O    -0.6878462    5.9147377   -4.0699195 
O    -5.7532134    2.3602108    0.8595025 
C     0.2401003    6.2279334   -5.1152655 
H    -0.0302961    7.2290869   -5.4824057 
H     1.2814502    6.2478333   -4.7396657 
H     0.1706947    5.4994639   -5.9457222 
C    -6.3035672    3.5303947    0.2384691 
H    -6.4704858    3.3655576   -0.8432725 
H    -7.2671263    3.7186077    0.7348416 
H    -5.6460178    4.4101818    0.3691956 
