116
Energy =
C    -3.7259944   -0.1526864   -0.2452085 
C    -3.0913873    0.4953849   -1.3337552 
C    -2.2917069   -0.2216052   -2.2521289 
H    -3.1841922    1.5835193   -1.4376534 
Pd   -1.3597072   -0.2315460   -0.1431466 
P     0.7965995    0.3593396   -0.8392093 
P    -0.7785928   -1.0662528    2.0282490 
H    -3.9020890   -1.2316339   -0.3540526 
H    -2.3910000   -1.3176126   -2.2371468 
C    -6.4361214    1.8362784    2.4458198 
C    -6.5369408    0.4555750    2.2201169 
C    -5.6493925   -0.1806023    1.3434520 
C    -4.6357280    0.5466766    0.6769071 
C    -4.5544475    1.9408529    0.9096337 
C    -5.4437868    2.5763081    1.7805176 
H    -7.1288233    2.3354981    3.1308999 
H    -7.3154278   -0.1278692    2.7225716 
H    -5.7496931   -1.2561738    1.1595321 
H    -3.7678780    2.5308451    0.4253666 
H    -5.3600594    3.6550375    1.9492724 
C    -0.6290754    1.2084734   -5.9546746 
C    -1.1129332    2.1328454   -5.0139116 
C    -1.6757404    1.6901255   -3.8121098 
C    -1.7459382    0.3085742   -3.5103910 
C    -1.2859325   -0.6087753   -4.4849919 
C    -0.7339499   -0.1663962   -5.6919727 
H    -0.1914882    1.5586586   -6.8949434 
H    -1.0605409    3.2061918   -5.2234756 
H    -2.0700554    2.4293324   -3.1078489 
H    -1.3600395   -1.6826784   -4.2819602 
H    -0.3835779   -0.8954209   -6.4298100 
Fe    3.8610806   -0.5902619    0.9920376 
C     2.0993422    0.3232012    0.4304820 
C     1.9957446   -0.2959988    1.7459324 
C     2.9991689    0.3165466    2.5840594 
C     3.7355582    1.2688506    1.8101704 
C     3.2072028    1.2601756    0.4823649 
C     5.1847525   -1.8094299    1.9477087 
C     4.2834542   -2.5925722    1.1511080 
C     4.4196207   -2.1692986   -0.2099875 
C     5.3984108   -1.1202947   -0.2611428 
C     5.8727521   -0.8992150    1.0745105 
C     1.0881455   -1.4397433    2.1667744 
H     3.2086540    0.0719034    3.6252133 
H     4.5809705    1.8622441    2.1628297 
H     3.5614271    1.8705432   -0.3482874 
H     5.3140030   -1.8778720    3.0296783 
H     3.6185285   -3.3797723    1.5119302 
H     3.8776007   -2.5804351   -1.0606138 
H     5.7292437   -0.5880002   -1.1546203 
H     6.6130950   -0.1570558    1.3784147 
H     1.1882978   -2.2257188    1.3948293 
C     1.5732138   -2.0104689    3.5160253 
H     2.6311567   -2.3032092    3.4117447 
H     1.5174257   -1.2594321    4.3180745 
H     1.0074248   -2.8900408    3.8386574 
C    -1.6096147   -2.8140724    2.0341508 
C    -1.2523531   -0.0174259    3.5604606 
C    -3.1202018   -2.6291155    2.2857059 
H    -3.6454609   -3.5694101    2.0369689 
H    -3.3391105   -2.3962310    3.3399389 
H    -3.5402447   -1.8270009    1.6646225 
C    -1.3955868   -0.8226851    4.8691134 
H    -1.6170458   -0.1151391    5.6894684 
H    -2.2305211   -1.5399289    4.8246039 
H    -0.4798993   -1.3684550    5.1412243 
C    -1.3958197   -3.3790926    0.6080643 
H    -1.8565700   -4.3819029    0.5410340 
H    -1.8627969   -2.7330775   -0.1582694 
H    -0.3256895   -3.4841732    0.3557639 
C    -1.0678746   -3.8515098    3.0401296 
H    -1.7147614   -4.7466351    2.9845723 
H    -0.0459944   -4.1790370    2.7906851 
H    -1.0901454   -3.4950492    4.0814457 
C    -0.1600470    1.0656446    3.7229217 
H    -0.5201887    1.8202391    4.4457342 
H     0.7860275    0.6594728    4.1094982 
H     0.0527982    1.5823970    2.7720398 
C    -2.5767976    0.7009000    3.2441026 
H    -3.4157081    0.0093871    3.0755408 
H    -2.8465097    1.3552716    4.0929895 
H    -2.4744085    1.3318325    2.3471733 
H    -0.4781425    2.1145985   -1.7341967 
C     0.8944785    4.4047429   -2.3160440 
C     1.4372290    2.9807413   -2.0790678 
C     0.4738554    2.1847648   -1.1757447 
C     0.1719225    2.9211112    0.1492703 
C    -0.3515416    4.3436381   -0.1133314 
C     0.6190097    5.1428961   -0.9968879 
H    -0.0448765    4.3373690   -2.8999181 
H     1.6104571    4.9712416   -2.9380349 
H     2.4377468    3.0482040   -1.6149804 
H     1.5542968    2.4694230   -3.0497352 
H    -0.5741479    2.3417994    0.7268428 
H     1.0898638    2.9681717    0.7648613 
H    -1.3376791    4.2791626   -0.6167748 
H    -0.5208897    4.8610342    0.8480675 
H     1.5725324    5.2873458   -0.4515696 
H     0.2150214    6.1508247   -1.1990546 
H     0.7902925    0.0004616   -3.1935952 
C     1.7013726   -2.6471944   -3.6223417 
C     1.2195611   -1.9443883   -2.3399872 
C     1.4429001   -0.4157892   -2.4042915 
C     2.9097450   -0.0742561   -2.7378152 
C     3.3554052   -0.7726969   -4.0364411 
C     3.1576094   -2.2947471   -3.9660745 
H     1.0529424   -2.3345787   -4.4625244 
H     1.5791548   -3.7403808   -3.5163389 
H     1.7610724   -2.3458901   -1.4605909 
H     0.1482435   -2.1540771   -2.1648463 
H     3.0429202    1.0143086   -2.8399858 
H     3.5416074   -0.3889206   -1.8917915 
H     2.7679248   -0.3666884   -4.8836031 
H     4.4139633   -0.5296710   -4.2403022 
H     3.8358663   -2.7192480   -3.2003977 
H     3.4441736   -2.7634246   -4.9242996 
