142
Energy =
C    -0.2884535    3.1520334    1.0312641 
C    -0.6305386    2.5303949    2.2541243 
C     0.3434266    1.8371280    3.0334031 
H    -1.6873343    2.4489112    2.5405679 
Pd    0.1616523    0.8699059    1.0405747 
P     1.0493983   -1.2133223    1.6185941 
P    -0.1092339    0.4429565   -1.2726732 
H     0.7767662    3.3568532    0.8521852 
H     1.3836198    2.1927276    2.9737821 
C    -2.9725759    5.2601905   -1.5871790 
C    -1.6694018    4.9443605   -2.0013061 
C    -0.7961681    4.2824113   -1.1328284 
C    -1.2186513    3.8908598    0.1592976 
C    -2.5274758    4.2346551    0.5709818 
C    -3.3903761    4.9186336   -0.2910822 
H    -3.6541777    5.7868504   -2.2633519 
H    -1.3283483    5.2194269   -3.0047070 
H     0.2188099    4.0436079   -1.4622422 
H    -2.8716025    3.9829085    1.5793235 
H    -4.3944574    5.1888467    0.0510495 
C    -0.6306157   -0.2792433    6.6549088 
C    -1.4813254   -0.3717484    5.5401799 
C    -1.1737397    0.3183278    4.3624927 
C    -0.0037391    1.1072178    4.2723120 
C     0.8436018    1.1905197    5.3969792 
C     0.5266814    0.5089829    6.5799446 
H    -0.8605802   -0.8306078    7.5716092 
H    -2.3849691   -0.9890288    5.5906365 
H    -1.8272696    0.2283374    3.4867903 
H     1.7589921    1.7887135    5.3401710 
H     1.1973339    0.5767331    7.4418826 
Fe   -3.0478703   -3.3892129    0.4374025 
C    -1.5368883   -2.1522096    1.0579294 
C    -1.6360964   -2.1502077   -0.3928965 
C    -2.9791575   -1.7464105   -0.7314639 
H    -3.3674988   -1.6524982   -1.7461361 
C    -3.6946149   -1.4714336    0.4780526 
H    -4.7391287   -1.1626287    0.5467168 
C    -2.8121411   -1.7225664    1.5782937 
H    -3.0666260   -1.6502777    2.6378871 
C    -2.6194334   -5.4040394    0.4194808 
H    -1.6414442   -5.8861942    0.3802555 
C    -3.4300271   -5.0454021   -0.7101776 
H    -3.1680738   -5.1752273   -1.7619272 
C    -4.6481388   -4.4727486   -0.2167467 
H    -5.4625311   -4.0760670   -0.8257873 
C    -4.5902431   -4.4736541    1.2173930 
H    -5.3560899   -4.0827064    1.8899664 
C    -3.3359690   -5.0474588    1.6110831 
H    -2.9980848   -5.1933095    2.6388328 
C    -0.5296540   -2.3677341   -1.3680604 
C     0.2356063   -1.2738292   -1.8701038 
C     1.2812324   -1.5149966   -2.7832877 
H     1.8913803   -0.6805203   -3.1421566 
C     1.5684172   -2.8169098   -3.2168882 
H     2.3931941   -2.9879753   -3.9154136 
C     0.8133597   -3.8948047   -2.7378733 
H     1.0412237   -4.9148650   -3.0613392 
C    -0.2219577   -3.6634252   -1.8229696 
H    -0.8193924   -4.4934444   -1.4387575 
C     1.0409115    1.5485000   -2.1917240 
C     0.9127508    1.8136060   -3.5682648 
H     0.1438528    1.3088894   -4.1594214 
C     1.7577577    2.7274286   -4.2206802 
C     2.7401256    3.3978598   -3.4531217 
C     2.9080280    3.1433016   -2.0726046 
C     2.0508737    2.2135092   -1.4681584 
H     2.1524760    2.0258176   -0.3916150 
C    -1.7900556    0.7765146   -1.9253501 
C    -2.7692880    1.2994810   -1.0645330 
H    -2.5151016    1.4971004   -0.0187474 
C    -4.0861219    1.5015697   -1.5017251 
C    -4.3979480    1.1901583   -2.8442652 
C    -3.4445910    0.6266099   -3.7257724 
C    -2.1441012    0.4140251   -3.2394414 
H    -1.4178283   -0.0893245   -3.8875932 
C     2.3560154   -1.8080365    0.4436928 
C     3.1826852   -0.8169082   -0.1161601 
H     2.9957847    0.2383300    0.0963269 
C     4.2397575   -1.1608375   -0.9699690 
C     4.4819853   -2.4995363   -1.2947508 
H     5.2951356   -2.7659100   -1.9753420 
C     3.6485748   -3.4874030   -0.7530219 
C     2.6055365   -3.1539271    0.1198646 
H     1.9892722   -3.9568631    0.5152072 
C     2.0231194   -1.2188133    3.1947659 
C     3.1198629   -0.3417776    3.2726656 
H     3.3941244    0.2878223    2.4205125 
C     3.8710671   -0.2430259    4.4503037 
C     3.5560707   -1.0296982    5.5652084 
H     4.1402001   -0.9448419    6.4851552 
C     2.4591225   -1.8980597    5.4915315 
C     1.6902738   -1.9893465    4.3226476 
H     0.8241251   -2.6529827    4.3295779 
C    -0.3310180   -2.4562291    1.9247433 
H    -0.6169388   -2.1314375    2.9431335 
C     0.0631787   -3.9442310    1.9861397 
H    -0.7268763   -4.4917435    2.5219047 
H     0.1295422   -4.3693704    0.9743498 
H     1.0174947   -4.1095779    2.5143980 
C     4.9470131    0.8167276    4.5328846 
F     5.8268442    0.5801776    5.5235451 
F     5.6323606    0.9244484    3.3715311 
F     4.3829763    2.0374047    4.7695072 
C     2.1063618   -2.7457076    6.6964169 
F     0.8422431   -3.2293336    6.6173260 
F     2.9386962   -3.8035292    6.8153386 
F     2.1990369   -2.0299559    7.8435145 
C     5.0556044   -0.0669725   -1.6210530 
F     5.1882133    1.0063532   -0.8019551 
F     4.4550619    0.3745701   -2.7599850 
F     6.2901191   -0.4884263   -1.9584543 
C     3.8756881   -4.9316723   -1.1476562 
F     5.0269938   -5.4148486   -0.6356494 
F     2.8673684   -5.7339050   -0.7281460 
F     3.9545490   -5.0533557   -2.4980685 
C     1.6387753    2.9765387   -5.7061606 
H     0.9665998    3.8288224   -5.9199760 
H     2.6249299    3.2140697   -6.1376583 
H     1.2251397    2.0946562   -6.2219600 
C     3.9937712    3.8536107   -1.3026805 
H     4.9819220    3.6316647   -1.7394322 
H     3.8623258    4.9491388   -1.3420145 
H     4.0019105    3.5404098   -0.2465209 
C    -5.1783637    1.9659348   -0.5692324 
H    -6.0183337    1.2492964   -0.5741286 
H    -4.8006887    2.0705017    0.4602297 
H    -5.5915844    2.9407709   -0.8814266 
C    -3.8372498    0.2304827   -5.1298248 
H    -3.1859786   -0.5728894   -5.5117561 
H    -4.8852165   -0.1102134   -5.1575430 
H    -3.7500395    1.0856102   -5.8264766 
O     3.6182533    4.2673507   -4.0543056 
O    -5.7023766    1.3494457   -3.2591875 
C     3.1371660    5.5976233   -4.2967856 
H     3.9809768    6.1563838   -4.7274998 
H     2.2921192    5.6036951   -5.0102954 
H     2.8163507    6.0809648   -3.3542304 
C    -5.9860090    2.5764663   -3.9463608 
H    -5.4342609    2.6419086   -4.9030868 
H    -7.0675567    2.5770261   -4.1478062 
H    -5.7241497    3.4523276   -3.3218370 
