116
Energy =
C    -2.6268827   -2.0488328   -0.6571768 
C    -2.7646179   -0.8941878   -1.4445231 
C    -1.7303263   -0.4665052   -2.3405245 
H    -3.6401600   -0.2486899   -1.3020436 
Pd   -0.9386501   -0.4459749   -0.2727668 
P     1.1812572    0.4483460   -0.8308013 
P    -0.7976704   -0.0685225    2.1150111 
H    -1.8202336   -2.7479480   -0.9270228 
H    -1.1468965   -1.2506019   -2.8404564 
C    -5.5477834   -3.7560543    1.9918296 
C    -4.3572155   -4.4381590    1.6992097 
C    -3.4185344   -3.8673362    0.8321726 
C    -3.6437219   -2.5988477    0.2468839 
C    -4.8569832   -1.9301967    0.5409336 
C    -5.7955301   -2.5035479    1.4035011 
H    -6.2855146   -4.2009148    2.6672338 
H    -4.1629159   -5.4203305    2.1419580 
H    -2.4973236   -4.4111041    0.5938141 
H    -5.0693186   -0.9532295    0.0964214 
H    -6.7286956   -1.9730908    1.6188165 
C    -1.9923857    3.2612641   -4.4972980 
C    -2.5854212    3.1408579   -3.2293235 
C    -2.5044515    1.9354342   -2.5243424 
C    -1.8375835    0.8142041   -3.0739857 
C    -1.2636532    0.9468564   -4.3586273 
C    -1.3335936    2.1578635   -5.0597779 
H    -2.0495249    4.2075426   -5.0446393 
H    -3.1018326    3.9967273   -2.7823862 
H    -2.9387058    1.8719611   -1.5208238 
H    -0.7702367    0.0832658   -4.8172654 
H    -0.8809964    2.2359682   -6.0537918 
Fe    2.5167985   -2.3573470    0.8292432 
C     2.3230699   -0.3805430    0.3014055 
C     2.0722210   -0.5434286    1.7274153 
C     3.2561962   -1.1476584    2.2892060 
C     4.2249714   -1.3409370    1.2547916 
C     3.6530355   -0.8807629    0.0270524 
C     3.1919684   -4.2591583    1.1142236 
C     1.9202957   -4.0831311    1.7544728 
C     0.9681170   -3.7166644    0.7434263 
C     1.6490323   -3.6739188   -0.5116078 
C     3.0253630   -3.9981220   -0.2876729 
C     1.0324607    0.0765956    2.6516241 
H     3.3831509   -1.4097422    3.3422187 
H     5.2089866   -1.7989940    1.3705122 
H     4.1377857   -0.9108689   -0.9485819 
H     4.1281498   -4.5197561    1.6114103 
H     1.7244594   -4.2102869    2.8200685 
H    -0.0894198   -3.5099748    0.8863009 
H     1.1888610   -3.4425852   -1.4691122 
H     3.8120148   -4.0278674   -1.0438918 
H     1.0528433   -0.5603687    3.5481716 
C     1.5239591    1.4668455    3.1161558 
H     2.5323348    1.3606627    3.5512192 
H     1.6026319    2.1809049    2.2833167 
H     0.8638247    1.8948035    3.8869628 
C    -1.4180077   -1.2399971    3.5455080 
C    -1.8256306    1.5815651    2.3042077 
C    -2.9536478   -1.3617682    3.5833157 
H    -3.2187572   -2.1997426    4.2531168 
H    -3.4428988   -0.4597276    3.9831986 
H    -3.3744602   -1.5888410    2.5936571 
C    -2.0284517    2.0919107    3.7450176 
H    -2.5898866    3.0434767    3.6989552 
H    -2.6188337    1.3974318    4.3608659 
H    -1.0768554    2.2997967    4.2601393 
C    -0.8387907   -2.6275611    3.2283725 
H    -1.0437030   -3.3139740    4.0704562 
H    -1.3126890   -3.0476143    2.3288991 
H     0.2507508   -2.5881308    3.0713439 
C    -0.9184635   -0.8206606    4.9516436 
H    -1.3950434   -1.4932328    5.6882434 
H     0.1702011   -0.9441958    5.0778564 
H    -1.1829315    0.2091634    5.2266355 
C    -1.2030622    2.7132680    1.4641973 
H    -1.8939765    3.5762585    1.4721518 
H    -0.2411960    3.0641066    1.8650782 
H    -1.0736369    2.4032957    0.4139837 
C    -3.2099651    1.2930779    1.6662726 
H    -3.7838165    0.5148985    2.1851732 
H    -3.8060995    2.2240032    1.6875467 
H    -3.0926044    0.9869517    0.6122961 
H     0.9672786    2.4284181    0.4136809 
C     0.9149724    4.6455736   -1.1760440 
C     0.8303414    3.1651667   -1.5888079 
C     1.5098471    2.2702287   -0.5310245 
C     2.9735131    2.6795551   -0.2526727 
C     3.0222322    4.1644959    0.1584361 
C     2.3671343    5.0692593   -0.8993648 
H     0.3068275    4.8021726   -0.2630461 
H     0.4678097    5.2760872   -1.9654629 
H     1.3210781    3.0346425   -2.5708300 
H    -0.2215720    2.8617437   -1.7286022 
H     3.4002772    2.0460869    0.5448916 
H     3.6034734    2.5294417   -1.1452642 
H     2.4942275    4.2912822    1.1253948 
H     4.0706064    4.4665774    0.3317403 
H     2.9498194    5.0082554   -1.8400262 
H     2.4032003    6.1245132   -0.5749569 
H     0.8703653    0.5957499   -3.1545789 
C     1.9296865   -1.6265382   -4.4503149 
C     1.7215834   -1.3767733   -2.9466979 
C     1.7084576    0.1254980   -2.6046254 
C     3.0071177    0.8004470   -3.1062196 
C     3.1934610    0.5543990   -4.6166905 
C     3.2084455   -0.9429084   -4.9562418 
H     1.0591407   -1.2363673   -5.0130678 
H     1.9656217   -2.7141894   -4.6416303 
H     2.5343726   -1.8642764   -2.3796610 
H     0.7818358   -1.8440816   -2.6056643 
H     2.9792119    1.8844286   -2.9205525 
H     3.8820956    0.4049735   -2.5588824 
H     2.3657669    1.0480328   -5.1636979 
H     4.1274310    1.0393646   -4.9525924 
H     4.0888442   -1.4171984   -4.4787889 
H     3.3209423   -1.0917322   -6.0448068 
