112
Energy =
C     2.5086831    1.0867119   -1.7781973 
C     1.3294023    1.3402449   -2.5407918 
C     0.3535533    2.2516447   -2.0843063 
H     1.1280583    0.7378717   -3.4349326 
Pd    0.7031743    0.4985361   -0.5884547 
P    -1.4344707    0.3097943    0.3816300 
P     1.7494779   -0.5940490    1.1512128 
H     2.8467640    1.9035022   -1.1242267 
H     0.6702723    2.9612148   -1.3054626 
C     5.7087728   -1.5069279   -3.0231756 
C     5.9233996   -0.5150880   -2.0546259 
C     4.8670639    0.3049297   -1.6435418 
C     3.5731451    0.1554923   -2.1924558 
C     3.3657800   -0.8690686   -3.1458299 
C     4.4236370   -1.6841538   -3.5616317 
H     6.5355838   -2.1450386   -3.3513193 
H     6.9176049   -0.3794358   -1.6174693 
H     5.0441757    1.0820915   -0.8916096 
H     2.3677244   -1.0323086   -3.5672274 
H     4.2458526   -2.4637521   -4.3099549 
C    -3.2356954    3.5260284   -4.0913196 
C    -2.4625707    2.4928336   -4.6463436 
C    -1.2967129    2.0572328   -4.0075741 
C    -0.8696439    2.6522681   -2.7969523 
C    -1.6409319    3.7167801   -2.2714177 
C    -2.8147797    4.1426285   -2.9030446 
H    -4.1496669    3.8595111   -4.5928650 
H    -2.7695076    2.0260742   -5.5878329 
H    -0.7093948    1.2549389   -4.4651592 
H    -1.3021850    4.2208436   -1.3597593 
H    -3.3963262    4.9649603   -2.4736424 
Fe   -0.1132644   -3.5522827    1.3469394 
C     0.7713056   -1.8512923    2.0007394 
C    -0.6628226   -1.8157857    2.2521928 
C    -0.9568322   -2.9551537    3.0932442 
C     0.2540145   -3.6775839    3.3459315 
C     1.3227735   -3.0083447    2.6726988 
C     0.8308931   -4.7366487   -0.0200215 
C    -0.0509121   -5.5137324    0.8035854 
C    -1.3795041   -4.9914312    0.6525336 
C    -1.3210898   -3.8913139   -0.2662944 
C     0.0450930   -3.7321797   -0.6815121 
C     2.0289290    0.6888191    2.4425537 
C     2.7182726    1.8709223    2.0969698 
C     2.8650649    2.9037841    3.0303493 
C     2.3157193    2.7721416    4.3165795 
C     1.6379043    1.5964128    4.6696905 
C     1.4963147    0.5545070    3.7399835 
C     3.3608630   -1.4219522    0.9054766 
C     4.4667106   -1.1873499    1.7452166 
C     5.6475855   -1.9229275    1.5632691 
C     5.7275126   -2.8921766    0.5527475 
C     4.6303350   -3.1163102   -0.2941357 
C     3.4548497   -2.3766976   -0.1268562 
C    -1.6481649   -0.6969148    1.9776379 
H    -1.9420852   -3.2426825    3.4608974 
H     0.3375175   -4.6023668    3.9196475 
H     2.3704013   -3.3117320    2.6475925 
H     1.9092622   -4.8763984   -0.1080585 
H     0.2422560   -6.3412646    1.4520251 
H    -2.2735302   -5.3558391    1.1618586 
H    -2.1698968   -3.2900677   -0.5903279 
H     0.4212662   -2.9746364   -1.3721733 
H     3.1386304    1.9825390    1.0918443 
H     0.9709363   -0.3628669    4.0240182 
H     4.4031207   -0.4433890    2.5458977 
H     2.6077981   -2.5299015   -0.8003493 
H     3.4044035    3.8155801    2.7534547 
H     1.2188130    1.4851592    5.6751651 
H     6.5045407   -1.7418807    2.2204256 
H     4.6975332   -3.8536252   -1.0999869 
H     2.4219859    3.5838508    5.0435980 
H     6.6496728   -3.4665659    0.4169709 
H    -1.4271958    0.0835659    2.7347481 
C    -3.1015752   -1.1723547    2.1859114 
H    -3.8398932   -0.4254074    1.8597485 
H    -3.2844189   -2.1078711    1.6310813 
H    -3.2844674   -1.3710379    3.2552463 
H    -3.1801256   -1.2114090   -0.3293661 
H    -2.1750615    2.5327731   -0.0303691 
C    -2.9641318   -1.6520990   -3.0333449 
C    -1.9719896   -0.9371581   -2.0995857 
C    -2.6912549   -0.3708039   -0.8546231 
C    -3.7938707    0.6160953   -1.2989755 
C    -4.7976950   -0.0892664   -2.2320897 
C    -4.1078746   -0.7155025   -3.4541836 
H    -3.3821337   -2.5372690   -2.5135280 
H    -2.4292387   -2.0358809   -3.9210482 
H    -1.4988374   -0.0972832   -2.6388165 
H    -1.1575981   -1.6154570   -1.7993736 
H    -4.3304484    1.0285394   -0.4291397 
H    -3.3323335    1.4691297   -1.8297831 
H    -5.3258944   -0.8783642   -1.6607515 
H    -5.5667376    0.6355525   -2.5546164 
H    -3.6965985    0.0933711   -4.0860436 
H    -4.8439459   -1.2610353   -4.0711800 
C    -1.0486752    4.2216587    1.8981368 
C    -0.7461941    2.7466802    1.5842467 
C    -1.9565302    2.0330565    0.9322309 
C    -3.1970977    2.1727407    1.8433643 
C    -3.5034638    3.6574192    2.1227006 
C    -2.3048006    4.3676310    2.7698091 
H    -1.1977168    4.7736204    0.9488113 
H    -0.1721657    4.6756645    2.3943165 
H    -0.4709802    2.2261276    2.5220968 
H     0.1386197    2.6675783    0.9264691 
H    -4.0815049    1.6924120    1.3925161 
H    -3.0088658    1.6620086    2.8068982 
H    -3.7611552    4.1583028    1.1685442 
H    -4.3952342    3.7321508    2.7703263 
H    -2.1109597    3.9209772    3.7651306 
H    -2.5343710    5.4344116    2.9407476 
