110
Energy =
C     2.6584481    1.0956009    0.7399531 
C     2.6976542    1.9707648   -0.4009259 
C     1.8049965    3.0451403   -0.5272725 
H     3.3936377    1.7498743   -1.2200367 
Pd    0.7646610    0.8413133   -0.3589901 
P    -0.9252510    0.5079768   -1.9981675 
P    -0.1791827   -0.4592548    1.3103821 
H     2.3558128    1.5380191    1.6992746 
H     1.2059165    3.2967791    0.3617671 
C     5.0733886   -2.4658841    1.0403771 
C     4.7442924   -1.9465401   -0.2226887 
C     3.9659319   -0.7889176   -0.3294645 
C     3.5112446   -0.1078367    0.8269579 
C     3.8731971   -0.6322183    2.0895074 
C     4.6337930   -1.8023462    2.1959673 
H     5.6604620   -3.3852694    1.1264134 
H     5.0867242   -2.4553370   -1.1300714 
H     3.6890361   -0.4208722   -1.3242289 
H     3.5627468   -0.1020182    2.9951008 
H     4.8875829   -2.2015630    3.1830492 
C     1.6258272    6.0676538   -3.5663726 
C     0.8089862    6.1421493   -2.4275685 
C     0.8815358    5.1440894   -1.4508830 
C     1.7711390    4.0495262   -1.5895431 
C     2.6020030    4.0007606   -2.7361201 
C     2.5243273    4.9959385   -3.7133664 
H     1.5725334    6.8469738   -4.3333747 
H     0.1168722    6.9806971   -2.3008889 
H     0.2402130    5.2012284   -0.5638809 
H     3.3178750    3.1831254   -2.8632248 
H     3.1738656    4.9439811   -4.5930864 
Fe   -3.0994395   -2.4499239    1.0572726 
C    -1.9478002   -0.7829560    1.0596797 
C    -2.5635082   -0.9793812   -0.2447230 
C    -3.9900437   -0.9874506   -0.0421130 
C    -4.2586558   -0.8032916    1.3551894 
C    -3.0076014   -0.6881309    2.0434933 
C    -2.9089356   -4.2816700    0.1391926 
C    -1.9540129   -4.1523169    1.1983428 
C    -2.6721216   -3.9111960    2.4183829 
C    -4.0742250   -3.8954706    2.1096284 
C    -4.2205703   -4.1193990    0.6990423 
C    -0.1338827    0.6158386    2.8003572 
C     0.8344124    0.4735911    3.8145404 
C     0.9249695    1.4158118    4.8479507 
C     0.0538685    2.5137924    4.8756780 
C    -0.9179953    2.6646412    3.8712582 
C    -1.0077972    1.7268136    2.8398062 
C     0.6511341   -2.0320122    1.7336218 
C     1.3966291   -2.6538167    0.7141033 
C     2.0636905   -3.8571533    0.9604935 
C     2.0057962   -4.4327357    2.2391165 
C     1.2365782   -3.8386599    3.2531676 
C     0.5509275   -2.6453016    2.9984015 
C    -1.8247840   -1.1237409   -1.5529679 
H    -4.7456569   -1.1465827   -0.8126766 
H    -5.2461316   -0.7956260    1.8199548 
H    -2.8694472   -0.5432982    3.1160440 
H    -2.6757262   -4.4764472   -0.9089429 
H    -0.8713599   -4.2234581    1.0931944 
H    -2.2326132   -3.7652693    3.4059618 
H    -4.8858576   -3.7188280    2.8178555 
H    -5.1626082   -4.1448570    0.1481406 
H     1.5246693   -0.3732733    3.8031026 
H    -1.7648637    1.8549427    2.0607529 
H     1.4709751   -2.1780591   -0.2686231 
H    -0.0593491   -2.1936661    3.7866585 
H    -0.9539231   -1.7752930   -1.3535462 
C    -2.6882922   -1.8075658   -2.6291562 
H    -3.1559361   -2.6985154   -2.1784169 
H    -3.4924712   -1.1622720   -3.0086555 
H    -2.0845073   -2.1424930   -3.4850309 
C     0.1865108    3.5716538    5.9504407 
F    -1.0217206    4.0581197    6.3162079 
F     0.7961024    3.0917435    7.0565372 
F     0.9218905    4.6205798    5.5041302 
H     1.6716480    1.2946550    5.6379031 
H    -1.6057345    3.5149579    3.9030907 
H     2.6516960   -4.3350826    0.1729159 
H     1.1774714   -4.3127425    4.2369734 
C     2.8547606   -5.6487389    2.5372314 
F     2.3908679   -6.3476422    3.5943665 
F     2.9204878   -6.4846173    1.4766845 
F     4.1305582   -5.2726607    2.8282823 
C    -0.0223087    0.1304898   -3.6543894 
C    -2.2156750    1.9097342   -2.1604777 
C     1.0859188    1.1889367   -3.8531708 
H     1.6590609    0.9405864   -4.7653461 
H     0.6955811    2.2094717   -3.9701220 
H     1.7850969    1.1871100   -2.9993285 
C    -2.4914031    2.3966276   -0.7163870 
H    -3.2140728    3.2326832   -0.7513598 
H    -2.9231534    1.6018351   -0.0858937 
H    -1.5641491    2.7624450   -0.2403709 
C     0.6837562   -1.2355960   -3.4683146 
H     1.3622856   -1.4054473   -4.3238174 
H     1.2975344   -1.2425319   -2.5473318 
H    -0.0162039   -2.0852677   -3.4304761 
C    -0.9327962    0.1082644   -4.8999524 
H    -0.3249727   -0.1798010   -5.7776752 
H    -1.7590619   -0.6127110   -4.8181654 
H    -1.3599660    1.1016839   -5.1109700 
C    -1.5925092    3.0772541   -2.9526928 
H    -2.2584274    3.9556572   -2.8710149 
H    -0.6101642    3.3686549   -2.5497296 
H    -1.4826677    2.8468237   -4.0244077 
C    -3.5434026    1.4830380   -2.8174867 
H    -4.1945957    2.3723431   -2.9051759 
H    -3.4009437    1.0752251   -3.8308805 
H    -4.0811032    0.7434105   -2.2039530 
