118
Energy =
C    -0.4781016    2.3112521   -2.1151319 
C    -0.4374545    1.1720514   -2.9542442 
C    -1.3771116    0.1198591   -2.8104186 
H     0.3834670    1.0640755   -3.6729990 
Pd   -0.1220031    0.3750134   -0.9106140 
P    -0.5844697   -1.8217842   -0.1018889 
P     0.8834803    1.3189933    1.0067371 
H    -1.4313520    2.5037371   -1.6010950 
H    -2.3297157    0.3717009   -2.3227020 
C     1.8415653    5.8931247   -2.6724397 
C     0.6981762    5.8963497   -1.8598463 
C    -0.0298517    4.7157222   -1.6695327 
C     0.3714763    3.5029705   -2.2792592 
C     1.5378474    3.5138909   -3.0800981 
C     2.2562830    4.6962760   -3.2813450 
H     2.4082887    6.8159788   -2.8314869 
H     0.3645270    6.8238204   -1.3833029 
H    -0.9352622    4.7312039   -1.0525810 
H     1.8860314    2.5922217   -3.5574582 
H     3.1509994    4.6851065   -3.9120012 
C    -1.6406771   -3.3684629   -5.3223725 
C    -2.7252698   -2.9729837   -4.5249790 
C    -2.6259085   -1.8295695   -3.7231351 
C    -1.4362210   -1.0642670   -3.6853659 
C    -0.3543406   -1.4731960   -4.5007797 
C    -0.4601274   -2.6065349   -5.3133867 
H    -1.7158746   -4.2594586   -5.9537067 
H    -3.6551593   -3.5508101   -4.5359516 
H    -3.4853221   -1.5121093   -3.1214558 
H     0.5863440   -0.9133633   -4.4866263 
H     0.3865455   -2.9040215   -5.9405665 
Fe    1.6348825   -1.6557564    2.4749542 
C     0.0145342   -2.3849095    1.5294022 
C    -0.3621104   -1.7685144    2.7865083 
H    -1.0555885   -0.9369297    2.9081583 
C     0.3266962   -2.4380064    3.8491592 
H     0.2633207   -2.1841149    4.9086013 
C     1.1298623   -3.4743962    3.2745162 
H     1.7933044   -4.1503416    3.8167293 
C     0.9448063   -3.4506298    1.8529516 
C     2.0457889    0.1879767    1.8264325 
C     2.7793074   -0.7959674    1.0548495 
H     2.6772885   -0.9435683   -0.0209729 
C     3.6134188   -1.5428945    1.9453504 
H     4.2569972   -2.3796386    1.6685318 
C     3.4243495   -1.0257192    3.2683090 
H     3.8985400   -1.3993119    4.1777158 
C     2.4765892    0.0468517    3.2051155 
H     1.4439142   -4.1121294    1.1456638 
H     2.1379689    0.6349826    4.0567320 
H     1.2930339    3.5446115    0.1867530 
H    -1.2381101    0.8751510    1.9302559 
H    -2.7396082   -2.2114508   -1.0284853 
H    -0.5116965   -2.7331679   -2.2682580 
C     4.0528102    3.7195147   -0.3363116 
C     3.1632926    2.4898263   -0.0844716 
C     1.9265612    2.8517321    0.7709776 
C     2.3424065    3.5424912    2.0877837 
C     3.2314775    4.7701848    1.8095046 
C     4.4683247    4.3923477    0.9808308 
H     3.4978356    4.4455528   -0.9569142 
H     4.9423555    3.4162911   -0.9177021 
H     3.7564590    1.7203022    0.4454012 
H     2.8367635    2.0422471   -1.0420320 
H     1.4507041    3.8539686    2.6584933 
H     2.8981156    2.8231560    2.7193830 
H     2.6383856    5.5267949    1.2588109 
H     3.5285667    5.2331258    2.7677567 
H     5.1046247    3.7002685    1.5672474 
H     5.0804713    5.2887514    0.7760627 
C    -2.6275961    3.1916830    2.3522568 
C    -1.2891721    2.9906755    1.6193618 
C    -0.5631335    1.7269048    2.1360974 
C    -0.3523349    1.7752859    3.6631530 
C    -1.7010569    1.9874418    4.3790396 
C    -2.4280615    3.2439370    3.8751370 
H    -3.3067373    2.3536001    2.0969860 
H    -3.1145942    4.1154053    1.9913441 
H    -0.6486206    3.8798714    1.7713970 
H    -1.4616817    2.9029564    0.5322321 
H     0.1006143    0.8312150    4.0059645 
H     0.3432281    2.5905063    3.9309812 
H    -2.3433702    1.1000791    4.2050377 
H    -1.5345673    2.0449690    5.4695310 
H    -1.8300790    4.1399295    4.1340036 
H    -3.4007473    3.3553894    4.3861589 
C    -4.6694750   -0.8050106    0.3540727 
C    -3.1389175   -0.6919485    0.4601910 
C    -2.4540483   -2.0075518    0.0227851 
C    -2.9577625   -3.1679226    0.9106359 
C    -4.4895528   -3.2986971    0.8012144 
C    -5.1990051   -1.9885751    1.1810145 
H    -4.9465540   -0.9423031   -0.7103751 
H    -5.1382676    0.1401956    0.6833496 
H    -2.8675618   -0.4770023    1.5123794 
H    -2.7626845    0.1606624   -0.1362253 
H    -2.4725257   -4.1195405    0.6428104 
H    -2.6802383   -2.9619620    1.9609882 
H    -4.7563737   -3.5762058   -0.2378711 
H    -4.8365624   -4.1249852    1.4469857 
H    -5.0271776   -1.7823119    2.2559985 
H    -6.2910042   -2.0895368    1.0499895 
C     0.0529470   -5.4649872   -2.2576584 
C    -0.4730723   -4.5498897   -1.1345497 
C    -0.0119115   -3.0917384   -1.3507145 
C     1.5113172   -2.9609693   -1.5935765 
C     2.0021978   -3.9214762   -2.6907101 
C     1.5788974   -5.3697649   -2.4025116 
H    -0.4228467   -5.1687331   -3.2127888 
H    -0.2567853   -6.5056711   -2.0542799 
H    -0.1289769   -4.9315785   -0.1565773 
H    -1.5751993   -4.5901581   -1.1233901 
H     1.7372801   -1.9138380   -1.8741129 
H     2.0658564   -3.1639400   -0.6594144 
H     1.5747981   -3.6084665   -3.6612673 
H     3.1005919   -3.8432877   -2.7825158 
H     2.0623379   -5.7197029   -1.4681229 
H     1.9307363   -6.0384213   -3.2081955 
