110
Energy =
C     2.9659967   -0.8564432    1.1623056 
C     3.3911676   -0.0874383    0.0605901 
C     3.0070747    1.2850170   -0.0633677 
H     3.9236447   -0.5810110   -0.7627580 
Pd    1.1845553   -0.0095334   -0.0573795 
P    -0.2501011    1.7330476   -0.7281888 
P    -0.3057208   -1.8452418   -0.1296638 
H     2.5092353   -0.3207459    2.0105644 
H     2.9129758    1.8447744    0.8743236 
C     4.1806904   -4.8769245    2.0549908 
C     3.0224135   -4.3377654    2.6379152 
C     2.6387051   -3.0267578    2.3448061 
C     3.3891040   -2.2344349    1.4457435 
C     4.5563337   -2.7885716    0.8710916 
C     4.9499564   -4.0952410    1.1791967 
H     4.4869044   -5.9014157    2.2896427 
H     2.4185232   -4.9437790    3.3205140 
H     1.7328261   -2.6070491    2.7941476 
H     5.1770123   -2.1826597    0.2031214 
H     5.8646302   -4.5049278    0.7384601 
C     4.0393995    3.7003485   -3.4692310 
C     3.8635997    4.2866049   -2.2073043 
C     3.5010585    3.4966683   -1.1089672 
C     3.3189650    2.1024587   -1.2503494 
C     3.4648175    1.5311138   -2.5370573 
C     3.8281260    2.3207970   -3.6311584 
H     4.3264261    4.3165203   -4.3274953 
H     4.0155069    5.3629661   -2.0750478 
H     3.3715755    3.9584951   -0.1242885 
H     3.2741691    0.4622317   -2.6832608 
H     3.9341452    1.8622752   -4.6193259 
Fe   -2.2861923    0.2336201    3.7003431 
C    -1.2644969   -0.5360478    2.1247650 
C    -1.8508123    0.7475484    1.7672106 
C    -1.3536511    1.7288914    2.7018940 
H    -1.6338388    2.7827150    2.7058728 
C    -0.4451381    1.0837191    3.6031551 
H     0.0717595    1.5563266    4.4405413 
C    -0.3855515   -0.3036345    3.2467591 
H     0.1854465   -1.0750677    3.7686036 
C    -3.2079877   -1.2296434    4.7936163 
H    -2.9778590   -2.2966389    4.7721926 
C    -4.1656506   -0.5509592    3.9673980 
H    -4.8044428   -1.0173189    3.2156232 
C    -4.1448107    0.8424359    4.3158722 
H    -4.7484848    1.6314260    3.8634175 
C    -3.1797878    1.0226473    5.3606947 
H    -2.9121379    1.9714520    5.8294814 
C    -2.6004733   -0.2567479    5.6560914 
H    -1.8163815   -0.4512407    6.3903764 
C    -2.6880642    1.0744215    0.5796049 
C    -2.0875805    1.5173769   -0.6329576 
C    -2.9002632    1.8539138   -1.7335087 
H    -2.4380433    2.1897945   -2.6664523 
C    -4.2954864    1.7506858   -1.6539788 
H    -4.9096520    2.0138830   -2.5212146 
C    -4.8935912    1.3108868   -0.4661721 
H    -5.9827801    1.2281150   -0.3919051 
C    -4.0918871    0.9844050    0.6367304 
H    -4.5450416    0.6537557    1.5736623 
C    -1.3161148   -1.9656147   -1.6775110 
C    -0.7150250   -2.5558297   -2.8149442 
H     0.2815665   -3.0004858   -2.7452466 
C    -1.3843650   -2.5852887   -4.0442020 
C    -2.6704282   -2.0356203   -4.1633777 
H    -3.1956854   -2.0626647   -5.1235689 
C    -3.2784780   -1.4604465   -3.0407096 
C    -2.6084479   -1.4188529   -1.8090237 
H    -3.1051541   -0.9503878   -0.9600973 
C     0.4992102   -3.5040034   -0.1358479 
C    -0.1139722   -4.6433970    0.4237789 
H    -1.0813707   -4.5686096    0.9291379 
C     0.5042257   -5.8974988    0.3270669 
C     1.7313331   -6.0310483   -0.3388177 
H     2.2102350   -7.0125216   -0.4153250 
C     2.3469199   -4.9033800   -0.9002632 
C     1.7396893   -3.6460883   -0.7899404 
H     2.2349579   -2.7601933   -1.2046244 
C    -1.3995085   -1.8692139    1.4244010 
H    -0.8313479   -2.5895222    2.0402347 
C    -2.8347906   -2.4059649    1.2713749 
H    -3.1913237   -2.7504307    2.2552431 
H    -3.5239361   -1.6231949    0.9242081 
H    -2.8889809   -3.2484141    0.5621622 
C     0.5699809    2.4611419   -5.2481031 
C     0.1443272    1.2093903   -4.7748380 
C    -0.0964714    1.0207436   -3.4095988 
C     0.0689210    2.0909694   -2.5019939 
C     0.5102601    3.3392973   -2.9782847 
C     0.7578108    3.5181392   -4.3475402 
H     0.7620570    2.6088544   -6.3159703 
H    -0.0009471    0.3737763   -5.4674606 
H    -0.4266340    0.0421062   -3.0489377 
H     0.6814958    4.1691326   -2.2880098 
H     1.1093907    4.4907987   -4.7058573 
C     0.0869245    5.8044028    1.5241657 
C    -0.7808807    5.6650511    0.4291683 
C    -0.8696829    4.4418116   -0.2477543 
C    -0.0747149    3.3461870    0.1538689 
C     0.7703077    3.4877261    1.2683833 
C     0.8553515    4.7108666    1.9481814 
H     0.1523588    6.7605515    2.0536722 
H    -1.3971906    6.5097432    0.1044249 
H    -1.5657851    4.3377721   -1.0868476 
H     1.3294393    2.6230426    1.6318744 
H     1.5147432    4.8045046    2.8174560 
H    -0.8990906   -3.0477836   -4.9100575 
H    -4.2825918   -1.0309998   -3.1133672 
H     0.0188970   -6.7750051    0.7668420 
H     3.3116789   -4.9976475   -1.4078108 
