112
Energy =
C    -0.0230493    2.1773623    2.7110307 
C     0.2792396    2.8402542    1.4967543 
C    -0.6924698    2.9350428    0.4617259 
H     1.3090375    3.1712428    1.3120479 
Pd   -0.2454165    0.7686928    0.9241947 
P    -1.1983534   -0.1423714   -1.0021051 
P     0.5242040   -1.2356334    1.8410206 
H    -1.0899176    2.0825754    2.9673674 
H    -1.7482877    2.8827414    0.7637243 
C     2.5672325    1.7276483    6.1125497 
C     1.1752678    1.7931589    6.2729585 
C     0.3451859    1.9256394    5.1530941 
C     0.8921385    2.0265724    3.8532229 
C     2.2982297    1.9817859    3.7093739 
C     3.1248074    1.8206795    4.8249310 
H     3.2174585    1.6076233    6.9851681 
H     0.7327523    1.7277212    7.2722399 
H    -0.7422952    1.9512845    5.2815222 
H     2.7488521    2.0463867    2.7154721 
H     4.2099638    1.7655391    4.6905204 
C    -0.1257200    4.7325237   -3.4082867 
C     0.9934127    4.4363070   -2.6119577 
C     0.8288091    3.8512942   -1.3531932 
C    -0.4619747    3.5540575   -0.8553874 
C    -1.5785873    3.8743302   -1.6606314 
C    -1.4117661    4.4524509   -2.9246265 
H     0.0066695    5.1875456   -4.3952222 
H     2.0004566    4.6619765   -2.9775962 
H     1.7162434    3.6177462   -0.7546875 
H    -2.5858202    3.6663771   -1.2850163 
H    -2.2922962    4.6908007   -3.5303332 
Fe    1.2882091   -3.4231837   -0.7585965 
C     0.2404169   -2.7182350    0.8300919 
C    -0.6324214   -2.8689152   -0.3281360 
C    -0.5682848   -4.2549935   -0.7209589 
C     0.3125945   -4.9533851    0.1654952 
C     0.8213048   -4.0136442    1.1161879 
C     3.2958843   -3.0482829   -0.7372754 
C     3.0232719   -4.3288697   -1.3242674 
C     2.1708962   -4.1260303   -2.4625322 
C     1.9187102   -2.7206106   -2.5823519 
C     2.6115469   -2.0563348   -1.5169266 
C    -0.1076897   -1.7399871    3.4892213 
C     0.4755635   -1.2481488    4.6753765 
C    -0.0597187   -1.6047826    5.9211983 
C    -1.1811822   -2.4428862    5.9974298 
C    -1.7656737   -2.9351062    4.8195126 
C    -1.2325267   -2.5894882    3.5713181 
C     2.3531842   -1.1331974    2.0296435 
C     3.0521754   -0.1927692    1.2474439 
C     4.4496320   -0.1136037    1.3051386 
C     5.1632977   -0.9695953    2.1581599 
C     4.4738933   -1.9023583    2.9493462 
C     3.0756303   -1.9869465    2.8872417 
C    -1.7153444   -1.9452920   -0.8412922 
H    -1.1052318   -4.6896708   -1.5669537 
H     0.5866856   -6.0078463    0.0992012 
H     1.5362859   -4.2298660    1.9112064 
H     3.8977173   -2.8632891    0.1540575 
H     3.3735655   -5.2929433   -0.9506993 
H     1.7648579   -4.9091094   -3.1057438 
H     1.3002720   -2.2398433   -3.3389056 
H     2.6126112   -0.9840835   -1.3331767 
H     1.3570580   -0.6023802    4.6315498 
H    -1.6781586   -2.9987466    2.6590456 
H     2.4848520    0.4817161    0.5932755 
H     2.5485193   -2.7106903    3.5170540 
H    -1.9711595   -2.2650612   -1.8670464 
C    -2.9706948   -2.0963797    0.0484923 
H    -3.1930709   -3.1693050    0.1763280 
H    -2.7990495   -1.6651807    1.0508455 
H    -3.8500299   -1.6056212   -0.3975503 
H     0.4077279   -1.2213808    6.8339532 
H    -2.6340122   -3.6001170    4.8725424 
H     4.9815283    0.6183284    0.6883645 
H     5.0272750   -2.5680651    3.6197887 
H    -1.5952187   -2.7198153    6.9724816 
H     6.2553280   -0.9085801    2.2090053 
C    -5.1330551    2.2287402   -1.6947390 
C    -4.7711491    1.8231524   -0.3914959 
C    -3.5862851    1.0894714   -0.2303465 
C    -2.7777790    0.7520922   -1.3398230 
C    -3.1601633    1.1764215   -2.6217855 
C    -4.3460146    1.9170601   -2.8144113 
H    -6.0489909    2.8158094   -1.8333221 
H    -3.2781276    0.7872549    0.7785776 
H    -2.5205892    0.9712998   -3.4847391 
C    -5.6420590    2.1756652    0.7937181 
H    -5.1538475    1.9153278    1.7473888 
H    -5.8778053    3.2543468    0.8083511 
H    -6.6045222    1.6338260    0.7473593 
C    -4.7383986    2.3657697   -4.2046845 
H    -3.8732413    2.7921927   -4.7423512 
H    -5.1049811    1.5113213   -4.8034804 
H    -5.5383296    3.1232564   -4.1764855 
C     1.2383219    0.2342619   -4.9090108 
C     0.0436747   -0.5136081   -4.9410341 
C    -0.6878478   -0.6542145   -3.7480857 
C    -0.2417411   -0.0469082   -2.5554262 
C     0.9495189    0.6958455   -2.5579038 
C     1.7128319    0.8377430   -3.7307206 
H     1.8212733    0.3398083   -5.8321998 
H    -1.6107225   -1.2452127   -3.7607716 
H     1.2855576    1.1645050   -1.6268578 
C    -0.4248469   -1.1575310   -6.2271937 
H    -1.3765320   -1.6959792   -6.0887346 
H    -0.5715259   -0.3995151   -7.0174246 
H     0.3241213   -1.8774081   -6.6036982 
C     3.0204455    1.5960707   -3.7218324 
H     3.8675049    0.9156017   -3.9249229 
H     3.0328704    2.3779459   -4.5012622 
H     3.1973997    2.0808083   -2.7481109 
