124
Energy =
C     0.0474551   -2.4163886   -1.8176105 
C     0.6842478   -1.3854660   -2.5528943 
C     1.9267202   -0.8395525   -2.1409671 
H     0.1694702   -0.9298473   -3.4080550 
Pd    0.3024739   -0.5221459   -0.5593927 
P     1.2434210    1.3469702    0.5425800 
P    -1.4477927   -0.7715151    0.9787283 
H     0.6924948   -3.0080592   -1.1518277 
H     2.5600055   -1.4652518   -1.4944871 
C    -3.4990124   -4.5462667   -2.9929676 
C    -2.7474073   -4.9575002   -1.8833462 
C    -1.6125401   -4.2366786   -1.4970094 
C    -1.2012199   -3.0865964   -2.2099852 
C    -1.9831409   -2.6730931   -3.3157880 
C    -3.1126911   -3.3990382   -3.7044573 
H    -4.3906088   -5.1055802   -3.2920750 
H    -3.0486937   -5.8421095   -1.3140508 
H    -1.0282465   -4.5707269   -0.6326390 
H    -1.6930495   -1.7932176   -3.8989955 
H    -3.6981455   -3.0689281   -4.5685645 
C     4.0974079    1.9629945   -4.5698549 
C     2.6985174    2.0571420   -4.4859730 
C     1.9809126    1.1688587   -3.6804454 
C     2.6476915    0.1778067   -2.9246640 
C     4.0581562    0.1183508   -2.9908654 
C     4.7737553    0.9883981   -3.8220511 
H     4.6570619    2.6514261   -5.2113003 
H     2.1652493    2.8260710   -5.0541269 
H     0.8905722    1.2465938   -3.6337177 
H     4.5914949   -0.6393950   -2.4056946 
H     5.8641072    0.9097833   -3.8811933 
Fe   -2.5764593    2.1092207   -0.4668538 
C    -2.1888024    0.8819636    1.1169111 
C    -1.4346129    2.1253509    1.2285339 
C    -2.3998955    3.1957696    1.2454091 
C    -3.7156901    2.6421329    1.1393824 
C    -3.5939554    1.2187006    1.0589517 
C    -3.5481489    3.0841049   -1.9685880 
C    -2.1521901    3.4187341   -1.9743835 
C    -1.4065035    2.2038047   -2.1508143 
C    -2.3418290    1.1233593   -2.2582343 
C    -3.6659816    1.6642276   -2.1422802 
C     0.0173887    2.3488113    1.5930946 
H    -2.1523619    4.2570399    1.3192757 
H    -4.6490338    3.2062073    1.0945420 
H    -4.4127231    0.5052268    0.9593236 
H    -4.3749141    3.7840516   -1.8351103 
H    -1.7377152    4.4215518   -1.8594918 
H    -0.3216256    2.1132049   -2.1952914 
H    -2.0814427    0.0719866   -2.3920973 
H    -4.6006100    1.1007239   -2.1620235 
H     0.2433810    3.4018871    1.3546195 
C     0.2308129    2.1508462    3.1137602 
H    -0.6276388    2.5846737    3.6548523 
H     0.3084604    1.0884713    3.3844539 
H     1.1442070    2.6564409    3.4577821 
C     4.4655579   -0.3819418    3.4626794 
C     3.6084463   -1.1975966    2.7013200 
C     2.6886188   -0.6182811    1.8260375 
C     2.5750952    0.7803470    1.6796269 
C     3.4422830    1.6252312    2.4282976 
C     4.3621818    1.0121083    3.3005879 
H     3.6450923   -2.2875301    2.8004526 
H     2.0210608   -1.2622820    1.2415763 
H     5.0245789    1.6593096    3.8890036 
C     3.2939384    4.6054272   -2.0354446 
C     1.9172168    4.7165498   -1.7773896 
C     1.3035313    3.7249863   -0.9891577 
C     2.0386428    2.6271739   -0.5065025 
C     3.4113361    2.5238910   -0.8097299 
C     4.0600001    3.5293839   -1.5443431 
H     3.7904569    5.3864946   -2.6237179 
H     0.2418342    3.8214324   -0.7417343 
H     3.9919781    1.6785471   -0.4261424 
C     5.4815646   -0.9838613    4.4052745 
H     5.7260078   -0.2965665    5.2321565 
H     5.1173039   -1.9330828    4.8330315 
H     6.4237961   -1.2044834    3.8685644 
C     3.4603133    3.1384172    2.3386423 
H     4.3083875    3.4748473    1.7146924 
H     2.5520775    3.5598420    1.8839083 
H     3.5904216    3.5822900    3.3404561 
C     1.1002624    5.8592497   -2.3392093 
H     1.7370980    6.7103113   -2.6307572 
H     0.5452130    5.5339892   -3.2397917 
H     0.3562265    6.2205280   -1.6078782 
C     5.5574060    3.4948940   -1.7498152 
H     5.8313563    3.7953008   -2.7751564 
H     6.0552665    4.1995795   -1.0569632 
H     5.9676996    2.4898568   -1.5621699 
C    -0.2648821   -1.8390606    5.3766710 
C    -1.1867395   -0.8417529    5.1088831 
C    -1.5494651   -0.5471310    3.7702202 
C    -0.9953492   -1.2503803    2.7034369 
H     0.0328093   -2.0570563    6.4080284 
H    -1.6330769   -0.2655110    5.9254470 
H    -2.2590153    0.2636127    3.5752707 
C    -0.0916964   -2.3396746    2.9585843 
C     0.2947964   -2.6162584    4.3209411 
C     1.2067228   -3.6827253    4.5804935 
C     1.6966701   -4.4710741    3.5524410 
C     1.2849800   -4.2269404    2.2150396 
C     0.4128766   -3.1885072    1.9306843 
H     1.5022139   -3.8782202    5.6170838 
H     2.3883624   -5.2917773    3.7681669 
H     1.6545877   -4.8667745    1.4065486 
H     0.0927356   -3.0093260    0.9001018 
C    -3.6729785   -1.6346712   -0.4852858 
C    -2.8585077   -1.8916556    0.6145605 
C    -3.1348696   -3.0247521    1.4394045 
C    -4.2126716   -3.8470050    1.1597090 
H    -3.4697735   -0.7705547   -1.1176166 
H    -2.5032359   -3.2409604    2.3047589 
H    -4.4163180   -4.7116993    1.8008393 
C    -5.0749389   -3.5896090    0.0551751 
C    -4.8007488   -2.4472518   -0.7792643 
C    -5.6595442   -2.1740676   -1.8852027 
C    -6.7397596   -2.9954687   -2.1597048 
C    -7.0040112   -4.1297321   -1.3428269 
C    -6.1902657   -4.4201565   -0.2592823 
H    -5.4418363   -1.3110801   -2.5238208 
H    -7.3933114   -2.7784635   -3.0109862 
H    -7.8594706   -4.7731919   -1.5732311 
H    -6.3973219   -5.2910159    0.3722947 
