112
Energy =
C     0.0713072    2.2262632    3.0010519 
C    -0.4468197    3.0716812    1.9824330 
C    -1.7032372    2.8156717    1.3824751 
H     0.1957800    3.8516199    1.5568265 
Pd   -0.2970815    1.0374063    1.1153005 
P    -1.0644873    0.0949764   -0.8657917 
P     0.7570926   -0.9723019    1.7174293 
H    -0.6511532    1.6760221    3.6203500 
H    -2.3942026    2.1643174    1.9397273 
C     3.9764891    2.5639822    4.7848885 
C     2.9697555    1.8008205    5.3942992 
C     1.6992476    1.7155059    4.8125019 
C     1.4099245    2.3807108    3.5994024 
C     2.4342816    3.1529515    2.9984157 
C     3.6994103    3.2465800    3.5876568 
H     4.9694879    2.6332827    5.2407180 
H     3.1718441    1.2683716    6.3294094 
H     0.9178614    1.1203391    5.2963113 
H     2.2498802    3.6704496    2.0511601 
H     4.4770334    3.8503696    3.1080492 
C    -3.7376690    5.2158170   -1.5423942 
C    -4.3500667    4.0808494   -0.9907957 
C    -3.6643599    3.3023469   -0.0536077 
C    -2.3485865    3.6331892    0.3468216 
C    -1.7369152    4.7680877   -0.2359785 
C    -2.4294631    5.5553390   -1.1604355 
H    -4.2759828    5.8339122   -2.2681347 
H    -5.3666348    3.8049826   -1.2883861 
H    -4.1519397    2.4255454    0.3863793 
H    -0.7195353    5.0536303    0.0498720 
H    -1.9469077    6.4402167   -1.5876428 
Fe   -0.0731553   -3.9939391   -0.2756848 
C    -0.1103232   -2.4658724    1.1122350 
C    -1.3328201   -2.5092880    0.3182630 
C    -1.9224568   -3.8111613    0.5175237 
C    -1.0833178   -4.5746002    1.3921927 
C     0.0398911   -3.7640297    1.7424835 
C     1.6539246   -4.8607839   -0.9714439 
C     0.5740591   -5.8039451   -0.9628924 
C    -0.4708680   -5.2871933   -1.8001767 
C    -0.0381165   -4.0233756   -2.3208408 
C     1.2736674   -3.7546009   -1.8061529 
C     0.6087038   -1.2381531    3.5382249 
C     1.7047124   -1.5817945    4.3510417 
C     1.5217539   -1.7779968    5.7292611 
C     0.2518973   -1.6309952    6.3039549 
C    -0.8467181   -1.2935640    5.4946529 
C    -0.6692747   -1.0987199    4.1199419 
C     2.5544588   -1.1272806    1.4062783 
C     3.1188792   -2.2795007    0.8349413 
C     4.5075239   -2.3657085    0.6586368 
C     5.3368518   -1.3068835    1.0585496 
C     4.7731675   -0.1526921    1.6267834 
C     3.3858808   -0.0563015    1.7948568 
C    -2.0866156   -1.4010116   -0.3889536 
H    -2.8453891   -4.1609323    0.0494654 
H    -1.2486697   -5.6089634    1.6988813 
H     0.8579710   -4.0478096    2.4073059 
H     2.5985418   -4.9785819   -0.4379572 
H     0.5435365   -6.7400318   -0.4023868 
H    -1.4369299   -5.7612221   -1.9835704 
H    -0.6124735   -3.3747537   -2.9810240 
H     1.8668288   -2.8615469   -2.0050003 
H     2.7024536   -1.6886055    3.9154039 
H    -1.5288319   -0.8392813    3.4902839 
H     2.4584928   -3.0934368    0.5293872 
H     2.9534417    0.8442508    2.2399115 
H    -2.5099354   -1.8181618   -1.3210050 
C    -3.2332645   -0.9131995    0.5373585 
H    -3.9362560   -1.7406927    0.7304742 
H    -2.8164973   -0.5867937    1.5062015 
H    -3.7952366   -0.0693430    0.1051515 
H     2.3810065   -2.0414298    6.3548176 
H    -1.8422593   -1.1830640    5.9369361 
H     4.9427805   -3.2654662    0.2106319 
H     5.4114936    0.6794258    1.9412583 
H     0.1145751   -1.7799065    7.3798860 
H     6.4211605   -1.3785447    0.9240756 
C    -3.4462402    2.5722122   -3.9597863 
C    -2.1674510    2.9825400   -3.5327865 
C    -1.5241876    2.2265959   -2.5418350 
C    -2.1213725    1.0628078   -2.0147060 
C    -3.3942731    0.6710344   -2.4661040 
C    -4.0766575    1.4303949   -3.4373412 
H    -3.9651936    3.1625165   -4.7247776 
H    -0.5290918    2.5287865   -2.1937223 
H    -3.8740178   -0.2358146   -2.0847957 
C    -1.4961015    4.1863096   -4.1530066 
H    -0.6724388    4.5578275   -3.5221448 
H    -1.0749016    3.9270161   -5.1424248 
H    -2.2133651    5.0102954   -4.3064446 
C    -5.4686441    1.0409127   -3.8837713 
H    -5.6614898   -0.0335767   -3.7262637 
H    -6.2304922    1.6021039   -3.3093988 
H    -5.6299227    1.2696883   -4.9506704 
C     2.3249150   -0.8679177   -3.8626087 
C     0.9926052   -1.1410446   -4.2320612 
C    -0.0262936   -0.8710041   -3.3016118 
C     0.2834592   -0.3749900   -2.0212270 
C     1.6199948   -0.0966413   -1.6844225 
C     2.6599559   -0.3407177   -2.6010687 
H     3.1255006   -1.0641389   -4.5863693 
H    -1.0728372   -1.0302649   -3.5878074 
H     1.8567081    0.3346648   -0.7065303 
C     0.6671833   -1.7411164   -5.5810991 
H    -0.3482126   -1.4651868   -5.9117007 
H     1.3854987   -1.4175846   -6.3526246 
H     0.7126332   -2.8459340   -5.5302384 
C     4.0981076   -0.0431236   -2.2418892 
H     4.7167265   -0.9556824   -2.3093271 
H     4.5339624    0.7000254   -2.9337609 
H     4.1833357    0.3435520   -1.2141488 
