112
Energy =
C     1.2388901    0.6045878   -3.0945686 
C     0.2583381    1.6168805   -3.0333293 
C     0.4140829    2.7837364   -2.2241005 
H    -0.7105657    1.4471356   -3.5196155 
Pd    0.4628281    0.9780962   -0.9320886 
P     0.0725742    2.0496478    1.1002010 
P     0.3851808   -1.1961136    0.0035297 
H     2.2594857    0.8728020   -2.7803590 
H     1.4334594    3.1669375   -2.0689028 
C     1.0693804   -2.9451709   -5.5265589 
C     2.2830214   -2.5091091   -4.9741169 
C     2.3198402   -1.3525673   -4.1868053 
C     1.1453185   -0.6098128   -3.9225129 
C    -0.0677423   -1.0558484   -4.4989541 
C    -0.1028803   -2.2068256   -5.2923004 
H     1.0371521   -3.8471126   -6.1460653 
H     3.2057832   -3.0670153   -5.1636564 
H     3.2744318   -1.0109554   -3.7725913 
H    -0.9961559   -0.5041394   -4.3210621 
H    -1.0507715   -2.5318857   -5.7334388 
C    -2.7347584    5.7043880   -1.8905185 
C    -3.0541985    4.3431949   -2.0242548 
C    -2.0362575    3.3886531   -2.1184333 
C    -0.6748324    3.7737854   -2.0874220 
C    -0.3704438    5.1432050   -1.9366484 
C    -1.3900906    6.0985912   -1.8431621 
H    -3.5310883    6.4520768   -1.8166761 
H    -4.1019029    4.0253343   -2.0518460 
H    -2.2973822    2.3272396   -2.2009704 
H     0.6769762    5.4605124   -1.9028377 
H    -1.1316768    7.1560647   -1.7291935 
Fe   -2.0927054   -1.8642365    2.6945197 
C    -0.3930047   -1.2830805    1.6642263 
C    -0.9698539   -0.1734679    2.4183325 
C    -1.0034563   -0.5582311    3.8040656 
C    -0.4772645   -1.8831134    3.9298702 
C    -0.1220412   -2.3394267    2.6223724 
C    -3.3119507   -3.2752628    1.8233687 
C    -3.1431786   -3.5392845    3.2203216 
C    -3.6136330   -2.3941698    3.9460862 
C    -4.0725270   -1.4219933    2.9959220 
C    -3.8876942   -1.9671184    1.6837177 
C    -1.3894165    1.1834895    1.9021893 
H    -1.4070589    0.0510549    4.6160835 
H    -0.4091878   -2.4632269    4.8520986 
H     0.3038815   -3.3162016    2.3880300 
H    -3.0568365   -3.9534445    1.0098308 
H    -2.7085699   -4.4406487    3.6561521 
H    -3.5958007   -2.2711963    5.0307542 
H    -4.4825018   -0.4396030    3.2376929 
H    -4.1559908   -1.4816382    0.7447732 
H     1.7695400   -3.0453634    0.7133817 
C     4.1807178   -2.0426809    1.6704622 
C     2.8630570   -1.3024540    1.3866778 
C     2.0282328   -2.0411107    0.3260995 
C     2.8409279   -2.2101730   -0.9708760 
C     4.1686275   -2.9419761   -0.7008525 
C     4.9984553   -2.2342572    0.3824749 
H     3.9586932   -3.0307427    2.1201425 
H     4.7639635   -1.4781037    2.4202927 
H     3.0937460   -0.2949347    1.0019368 
H     2.2878576   -1.1585681    2.3176393 
H     2.2631721   -2.7526571   -1.7385381 
H     3.0496739   -1.2039138   -1.3826535 
H     3.9476256   -3.9781356   -0.3773317 
H     4.7434719   -3.0227084   -1.6413951 
H     5.3158590   -1.2412657    0.0054030 
H     5.9223303   -2.8029368    0.5903194 
H     0.0997455   -2.2842226   -2.0932154 
C    -2.6667866   -2.7558251   -2.4537122 
C    -1.9185115   -1.8490296   -1.4603104 
C    -0.4961043   -2.3631342   -1.1630091 
C    -0.5100792   -3.8347283   -0.7043713 
C    -1.2428406   -4.7221588   -1.7297787 
C    -2.6713193   -4.2242472   -2.0013775 
H    -2.1738422   -2.6888579   -3.4406320 
H    -3.7000170   -2.3865245   -2.5864700 
H    -2.4704004   -1.8011425   -0.5047913 
H    -1.8630047   -0.8149887   -1.8526231 
H     0.5198647   -4.2085148   -0.5682867 
H    -1.0117584   -3.8974363    0.2794740 
H    -0.6694820   -4.7190172   -2.6776297 
H    -1.2578364   -5.7670490   -1.3709075 
H    -3.2816611   -4.3269080   -1.0830774 
H    -3.1569528   -4.8559166   -2.7663170 
H    -1.6970268    1.8008574    2.7649072 
C    -2.5370736    1.1228365    0.8707402 
H    -3.4757424    0.8570176    1.3809598 
H    -2.6797950    2.0788371    0.3410117 
H    -2.3241770    0.3519122    0.1149732 
C     3.8209332    1.8943618    3.8456075 
C     2.5451538    1.7985936    4.4233065 
C     1.3997333    1.8277426    3.6164726 
C     1.5242243    1.9215901    2.2166559 
C     2.8089280    2.0216143    1.6436569 
C     3.9519041    2.0189850    2.4549221 
H     4.7122155    1.8782809    4.4812837 
H     2.4400196    1.7116772    5.5096790 
H     0.4127616    1.7821651    4.0837312 
H     2.9103155    2.0927385    0.5534445 
H     4.9441045    2.0989951    1.9990705 
C    -0.6928868    6.6406441    1.5022845 
C     0.5968839    6.1343533    1.2857007 
C     0.7970848    4.7567660    1.1399629 
C    -0.2895235    3.8575191    1.2230513 
C    -1.5832194    4.3769608    1.4299283 
C    -1.7793215    5.7587128    1.5663638 
H    -0.8503611    7.7178297    1.6178555 
H     1.4543741    6.8131307    1.2321302 
H     1.8127496    4.3804657    0.9830584 
H    -2.4525351    3.7188462    1.4955955 
H    -2.7918944    6.1427364    1.7263501 
