134
Energy =
C    -0.8703251    0.4528444   -3.3607763 
C     0.0881715    1.4705040   -3.1018631 
C     1.4501354    1.1935501   -2.8523134 
H    -0.2670263    2.5005418   -2.9811200 
Pd    0.0342214    0.1962855   -1.3028467 
P     1.4868175    0.5073892    0.5414389 
P    -1.7282314   -0.8686992   -0.2042791 
H    -0.5060803   -0.4970662   -3.7793074 
H     1.8397709    0.2260598   -3.2002629 
C    -5.0182798    1.2807120   -4.1909936 
C    -4.2559767    2.2064511   -3.4594495 
C    -2.9094684    1.9486655   -3.1823981 
C    -2.2898981    0.7566368   -3.6280465 
C    -3.0659578   -0.1516018   -4.3804934 
C    -4.4144040    0.1035815   -4.6553109 
H    -6.0732182    1.4816414   -4.4044437 
H    -4.7154118    3.1332057   -3.0999416 
H    -2.3355952    2.6774906   -2.5996943 
H    -2.5992530   -1.0663376   -4.7579285 
H    -4.9954004   -0.6212981   -5.2342424 
C     4.4877290    4.1781847   -2.2297935 
C     3.1329578    4.5484734   -2.2121112 
C     2.1347262    3.5865346   -2.3835217 
C     2.4670046    2.2278977   -2.5983416 
C     3.8354372    1.8724294   -2.6156383 
C     4.8347274    2.8334749   -2.4256325 
H     5.2668048    4.9347563   -2.0906288 
H     2.8519185    5.5939643   -2.0512775 
H     1.0875531    3.8995455   -2.3409499 
H     4.1164581    0.8298890   -2.7902535 
H     5.8872766    2.5323721   -2.4439596 
Fe    1.0064471   -4.4447707    1.6032840 
C     0.1011074   -2.8581314    0.7037637 
C     1.1431474   -2.4014517    1.6021163 
C     2.3800937   -3.0209914    1.1896200 
H     3.3469324   -2.8703019    1.6718181 
C     2.1220626   -3.8185754    0.0283413 
H     2.8550996   -4.4254942   -0.5062476 
C     0.7244780   -3.7189543   -0.2733220 
H     0.1995695   -4.2432621   -1.0754891 
C    -0.3534416   -5.9037188    2.0645819 
H    -1.3687272   -5.9924959    1.6732790 
C     0.0421751   -5.1989579    3.2510237 
H    -0.6245720   -4.6645306    3.9297656 
C     1.4660160   -5.3301810    3.3917910 
H     2.0797644   -4.9010906    4.1860720 
C     1.9481777   -6.1188821    2.2952212 
H     2.9904591   -6.3794321    2.1023786 
C     0.8246372   -6.4725871    1.4748167 
H     0.8631737   -7.0517576    0.5502596 
C     1.0219959   -1.3540104    2.6489168 
C     1.1244443    0.0206996    2.2974483 
C     1.0461422    1.0023554    3.3064936 
H     1.1257756    2.0603488    3.0431560 
C     0.8755252    0.6393593    4.6490277 
H     0.8244689    1.4168644    5.4178631 
C     0.7727264   -0.7127287    4.9998610 
H     0.6416046   -1.0052576    6.0467972 
C     0.8474754   -1.6947369    4.0031033 
H     0.7778046   -2.7546031    4.2581278 
C    -2.4108793    0.4377716    0.8944582 
C    -2.1743485    0.5310738    2.2802487 
H    -1.6156507   -0.2450044    2.8049573 
C    -2.6476926    1.6350695    3.0137104 
C    -3.3464403    2.6521844    2.3350784 
H    -3.7237427    3.5103205    2.9048644 
C    -3.5771147    2.5967875    0.9495557 
C    -3.0963582    1.4827836    0.2394067 
H    -3.2638095    1.4262532   -0.8404826 
C    -3.1382464   -1.4652297   -1.2333935 
C    -2.8143198   -2.4259130   -2.2174586 
H    -1.7622633   -2.6860591   -2.3969253 
C    -3.8143847   -3.0532675   -2.9739506 
C    -5.1544270   -2.6749144   -2.7514580 
H    -5.9463945   -3.1474612   -3.3451680 
C    -5.5027807   -1.7017230   -1.8020750 
C    -4.4796231   -1.1129537   -1.0284473 
H    -4.7488010   -0.3852152   -0.2567196 
C    -1.3637223   -2.5161823    0.7015107 
H    -1.8242924   -3.2048204   -0.0253346 
C    -2.1285666   -2.7023699    2.0240325 
H    -2.2211323   -3.7806324    2.2250180 
H    -1.6026642   -2.2482673    2.8760223 
H    -3.1435242   -2.2743090    1.9630072 
C    -3.4685936   -4.0657443   -4.0425639 
C    -6.9368171   -1.2595255   -1.6210126 
C    -2.4090879    1.7401641    4.5031035 
C    -4.3284245    3.6933080    0.2261895 
C     1.6646437    5.1139000    0.9848895 
C     2.8817900    4.4051946    1.0091438 
C     2.8497995    3.0091343    0.8473119 
C     1.6259325    2.3383070    0.6777715 
C     0.4217990    3.0694117    0.6428362 
C     0.4291725    4.4692092    0.7959797 
H     1.6818179    6.2043139    1.1038667 
H     3.7906642    2.4519719    0.8298016 
H    -0.5337779    2.5456280    0.5101035 
C     5.7214191   -1.2880503    0.0302371 
C     4.7708459   -1.4707765   -0.9880610 
C     3.4966616   -0.8963601   -0.8195486 
C     3.1858622   -0.1571676    0.3301959 
C     4.1483889   -0.0110534    1.3506759 
C     5.4313586   -0.5650407    1.2071453 
H     6.7155333   -1.7374471   -0.0840291 
H     2.7199617   -1.0656140   -1.5729943 
H     3.8900438    0.5169068    2.2756028 
H    -1.6356328    2.4999331    4.7208822 
H    -3.3282075    2.0480594    5.0312385 
H    -2.0644842    0.7836444    4.9262654 
H    -3.7309306    4.0992110   -0.6097205 
H    -5.2697576    3.3079157   -0.2055357 
H    -4.5788608    4.5269597    0.9018279 
H    -3.6223438   -3.6372839   -5.0512884 
H    -2.4169650   -4.3895751   -3.9718396 
H    -4.1116867   -4.9601116   -3.9709619 
H    -7.1819625   -1.1074407   -0.5558187 
H    -7.1030089   -0.2947400   -2.1373469 
H    -7.6458834   -1.9915424   -2.0408996 
C     4.1936648    5.1307888    1.2064634 
H     5.0496428    4.4937950    0.9305752 
H     4.2375203    6.0499942    0.5970191 
H     4.3199845    5.4328823    2.2629700 
C    -0.8665957    5.2484297    0.7439428 
H    -1.3226370    5.1865055   -0.2615723 
H    -1.6027127    4.8369119    1.4561717 
H    -0.7102774    6.3136835    0.9787030 
C     5.0909429   -2.2601467   -2.2380563 
H     5.2454302   -1.5857710   -3.1020312 
H     6.0076008   -2.8600373   -2.1176013 
H     4.2620568   -2.9408410   -2.5009661 
C     6.4819150   -0.3861786    2.2808022 
H     7.2152964    0.3868576    1.9835918 
H     6.0331044   -0.0715182    3.2373809 
H     7.0452267   -1.3197793    2.4512135 
