106
Energy =
C    -2.4523842   -1.4850334   -1.8048976 
C    -1.9698001   -2.3091040   -0.7581861 
C    -2.0373943   -1.8847449    0.5965501 
H    -1.4060300   -3.2161462   -1.0072784 
Pd   -0.8231111   -0.4255531   -0.6454418 
P     0.2921701    0.7635050    1.0429065 
P     0.1670803    0.8766987   -2.2927488 
H    -3.1829372   -0.7087404   -1.5301123 
H    -2.8264468   -1.1602930    0.8448286 
C    -2.5489276   -2.4089812   -6.0026920 
C    -3.1253947   -1.2282111   -5.5100286 
C    -3.0600437   -0.9318395   -4.1452349 
C    -2.4260336   -1.8132078   -3.2383060 
C    -1.8358421   -2.9913360   -3.7520439 
C    -1.8986298   -3.2845416   -5.1191853 
H    -2.6054134   -2.6461622   -7.0699483 
H    -3.6295784   -0.5370765   -6.1928188 
H    -3.5133498   -0.0092870   -3.7656684 
H    -1.3490326   -3.7046519   -3.0791291 
H    -1.4497460   -4.2098186   -5.4952204 
C    -0.5982020   -4.0530385    4.0229052 
C    -1.3837193   -2.9010549    4.1762795 
C    -1.8312778   -2.2007360    3.0520347 
C    -1.5103638   -2.6378726    1.7458467 
C    -0.7134681   -3.7994507    1.6078786 
C    -0.2655415   -4.4982028    2.7337577 
H    -0.2468601   -4.6019129    4.9024396 
H    -1.6466808   -2.5451737    5.1773137 
H    -2.4422604   -1.3006712    3.1811410 
H    -0.4522844   -4.1765775    0.6142378 
H     0.3414031   -5.4002974    2.6043465 
Fe    2.8792321   -0.9633080   -1.5580790 
C     1.9591423    0.7812898   -2.0310752 
C     2.5660617    0.8956973   -0.7137709 
C     3.9708376    0.6300587   -0.8822283 
C     4.2324078    0.3818744   -2.2686829 
C     2.9969890    0.4757381   -2.9853639 
C     2.9459366   -2.6769040   -2.6634128 
C     3.9466108   -2.6976278   -1.6339175 
C     3.2844271   -2.5748943   -0.3664770 
C     1.8720269   -2.4852496   -0.6140761 
C     1.6638702   -2.5437286   -2.0326454 
C     1.9237473    1.5513752    0.4911709 
H     4.7158858    0.6245125   -0.0859071 
H     5.2028103    0.1323109   -2.7016957 
H     2.8564312    0.3316754   -4.0566331 
H     3.1348949   -2.7289956   -3.7374972 
H     5.0244989   -2.7685981   -1.7903503 
H     3.7742120   -2.5549511    0.6088124 
H     1.0870699   -2.4007928    0.1383931 
H     0.6968423   -2.4859811   -2.5360912 
H     1.5718743    2.5328668    0.1168679 
C     2.8980355    1.7963072    1.6543570 
H     3.7174890    2.4556813    1.3204595 
H     2.3893128    2.2758785    2.5063238 
H     3.3321217    0.8520713    2.0203394 
C    -0.2497318    2.6296505   -2.1818128 
C    -1.2980475    3.2924070   -1.5765514 
C    -1.0863968    4.6873464   -1.8134046 
C     0.0769119    4.7779279   -2.5402641 
H    -2.1103994    2.8318790   -1.0140479 
H    -1.7137632    5.5146007   -1.4818057 
H     0.6445294    5.6135253   -2.9486607 
O     0.5970229    3.5427054   -2.7721395 
C    -0.0240406    0.5301458   -4.0639390 
C     0.4025515   -0.4901955   -4.8917745 
C    -0.0194959   -0.1436799   -6.2134683 
C    -0.6880128    1.0503457   -6.1011673 
H     0.9605017   -1.3745776   -4.5905078 
H     0.1425677   -0.7151882   -7.1269980 
H    -1.1913166    1.7028987   -6.8130106 
O    -0.7049302    1.4674588   -4.8048609 
C    -2.5850466    4.2503024    2.0843592 
C    -1.2220726    4.5514202    1.9328958 
C    -0.3264152    3.4987116    1.6496292 
C    -0.7883268    2.1820964    1.4995524 
C    -2.1643335    1.9101965    1.6660435 
C    -3.0769951    2.9328226    1.9664606 
H    -3.2884571    5.0631392    2.3020378 
H     0.7351523    3.7381330    1.5336832 
H    -2.5283487    0.8837737    1.5495163 
C     1.4117328   -1.2462649    5.0538984 
C     1.9364247   -1.7522237    3.8509212 
C     1.5574653   -1.1331107    2.6478098 
C     0.6811581   -0.0337191    2.6462161 
C     0.1640633    0.4507635    3.8634103 
C     0.5268684   -0.1515913    5.0813081 
H     1.6945940   -1.7249744    5.9992423 
H     1.9686942   -1.4915630    1.7024469 
H    -0.5201512    1.3053305    3.8687840 
C    -0.7100604    5.9703539    2.0389641 
H    -1.4981340    6.6633554    2.3746145 
H     0.1338074    6.0380801    2.7480998 
H    -0.3400515    6.3216981    1.0577849 
C    -4.5480913    2.6391536    2.1589386 
H    -4.7883936    1.5913637    1.9138014 
H    -4.8499792    2.8200121    3.2068240 
H    -5.1720492    3.2938265    1.5251470 
C     2.8930734   -2.9229241    3.8365224 
H     2.6611762   -3.6106260    3.0050874 
H     3.9360095   -2.5780971    3.7041345 
H     2.8484807   -3.4939336    4.7782012 
C    -0.0540059    0.3377361    6.3892831 
H     0.6982801    0.3205113    7.1961416 
H    -0.4458561    1.3644335    6.3007260 
H    -0.8908309   -0.3122299    6.7095810 
