134
Energy =
C    -1.3430648    0.9571479   -3.1481466 
C    -0.0619479    0.4979367   -3.5151862 
C     0.2940505   -0.8851302   -3.4306905 
H     0.7157858    1.2352381   -3.7496298 
Pd   -0.2534065   -0.1432941   -1.4048237 
P     0.4534891   -1.9246673   -0.0409734 
P    -0.9162857    1.2910684    0.3388375 
H    -2.1403499    0.2046444   -3.0477871 
H    -0.5046144   -1.6134455   -3.6200149 
C    -2.8353897    4.9849772   -3.3445975 
C    -3.6470155    3.9389378   -2.8826733 
C    -3.1456835    2.6342382   -2.8244088 
C    -1.8186045    2.3464885   -3.2196746 
C    -1.0187150    3.4104274   -3.7020766 
C    -1.5214078    4.7122748   -3.7611757 
H    -3.2261579    6.0065764   -3.3944813 
H    -4.6766233    4.1360514   -2.5676762 
H    -3.7841357    1.8247232   -2.4566709 
H     0.0021183    3.2201050   -4.0474092 
H    -0.8897657    5.5208261   -4.1434015 
C     4.2772579   -2.3628094   -4.1700063 
C     4.0792749   -1.0047886   -3.8693413 
C     2.7915294   -0.5160421   -3.6246906 
C     1.6652149   -1.3712262   -3.6892796 
C     1.8805362   -2.7326724   -4.0028664 
C     3.1710362   -3.2235750   -4.2343640 
H     5.2863189   -2.7450970   -4.3545473 
H     4.9361714   -0.3245096   -3.8171725 
H     2.6643441    0.5378973   -3.3564414 
H     1.0250725   -3.4124656   -4.0582435 
H     3.3125348   -4.2834312   -4.4700766 
Fe    3.9865324    0.7142299    1.6750024 
C     2.4953155   -0.1246267    0.5853494 
C     1.9529967    0.8600692    1.5171106 
C     2.6021903    2.1197473    1.2377767 
H     2.4067290    3.0505566    1.7713566 
C     3.4919490    1.9432826    0.1329808 
H     4.1339415    2.7113776   -0.3019170 
C     3.4265270    0.5719200   -0.2724312 
H     4.0187497    0.1186601   -1.0667070 
C     4.5429285   -0.3362141    3.3450394 
H     3.9167995   -0.9966960    3.9484862 
C     4.7328576    1.0755596    3.5437730 
H     4.2681718    1.6897304    4.3174841 
C     5.6402009    1.5450415    2.5363238 
H     5.9707778    2.5767066    2.4027728 
C     6.0085502    0.4275319    1.7140727 
H     6.6701491    0.4598708    0.8463666 
C     5.3321487   -0.7346335    2.2158646 
H     5.4067867   -1.7460895    1.8128761 
C     0.8368788    0.7284493    2.4986990 
C    -0.5227551    0.8662378    2.0916135 
C    -1.5565591    0.7465547    3.0386512 
H    -2.5984590    0.8267684    2.7138862 
C    -1.2647371    0.5399532    4.3936163 
H    -2.0811955    0.4489726    5.1171858 
C     0.0688358    0.4625160    4.8119121 
H     0.3090413    0.3215660    5.8706299 
C     1.1012296    0.5471825    3.8680557 
H     2.1442316    0.4737433    4.1811220 
C    -0.5581505   -2.2322170    1.4736139 
C    -0.0243710   -2.4141339    2.7600756 
H     1.0475252   -2.2965302    2.9440205 
C    -0.8600230   -2.7350739    3.8449930 
C    -2.2437673   -2.8545302    3.6180318 
H    -2.9036105   -3.0875402    4.4626081 
C    -2.8039259   -2.6884397    2.3388700 
C    -1.9400385   -2.3937825    1.2703204 
H    -2.3479454   -2.3113064    0.2560709 
C     0.3401102   -3.6315491   -0.7320524 
C    -0.5119700   -3.8746223   -1.8206208 
H    -1.0366736   -3.0355788   -2.2884726 
C    -0.7205323   -5.1807592   -2.3034953 
C    -0.0576511   -6.2399241   -1.6597531 
H    -0.2105367   -7.2633195   -2.0235665 
C     0.7776036   -6.0311922   -0.5435963 
C     0.9562182   -4.7170371   -0.0786469 
H     1.5614541   -4.5491005    0.8198088 
C     2.2298267   -1.6195980    0.5219090 
H     2.3178614   -2.0328154    1.5410517 
C     3.2308457   -2.3373441   -0.4037738 
H     4.2537714   -2.0424530   -0.1201734 
H     3.1505253   -3.4302353   -0.3239352 
H     3.0744957   -2.0654998   -1.4586614 
C    -1.6081587   -5.4269621   -3.5037535 
C     1.4739383   -7.1928013    0.1302592 
C    -0.2840700   -2.9555307    5.2254456 
C    -4.2968417   -2.7832726    2.1190254 
C    -5.5206445    1.8167413    0.0619961 
C    -4.7502006    2.9319933    0.4294801 
C    -3.3521921    2.7804414    0.5401270 
C    -2.7424386    1.5412504    0.2913274 
C    -3.5412186    0.4417326   -0.0886650 
C    -4.9350440    0.5607303   -0.2046288 
H    -6.6072288    1.9295213   -0.0371953 
H    -2.7436037    3.6540158    0.7898796 
H    -3.0604866   -0.5124718   -0.3231610 
C     1.0906878    5.4500318    0.0131940 
C     1.2534796    4.5238982   -1.0315660 
C     0.6091683    3.2786313   -0.9230361 
C    -0.1702437    2.9659758    0.1992366 
C    -0.2973470    3.9011321    1.2466879 
C     0.3216072    5.1601587    1.1592318 
H     1.5957619    6.4216306   -0.0535750 
H     0.7618990    2.5162491   -1.6932956 
H    -0.8500096    3.6356098    2.1551512 
H    -0.2894727   -4.0304650    5.4854588 
H     0.7561022   -2.5962166    5.2906832 
H    -0.8779157   -2.4305959    5.9936779 
H    -4.7541101   -1.7762540    2.1555157 
H    -4.5331288   -3.2152687    1.1318106 
H    -4.7833838   -3.3995776    2.8927641 
H    -2.3794637   -4.6443250   -3.6037399 
H    -1.0128643   -5.4260037   -4.4371096 
H    -2.1132262   -6.4051935   -3.4400977 
H     0.8551277   -8.1053364    0.1005600 
H     2.4269350   -7.4247923   -0.3819053 
H     1.7096426   -6.9667954    1.1836441 
C    -5.3839714    4.2817430    0.6829740 
H    -4.9248334    5.0561664    0.0422100 
H    -6.4677343    4.2666239    0.4839506 
H    -5.2342231    4.5976774    1.7313742 
C    -5.7906580   -0.6139689   -0.6250677 
H    -6.4625989   -0.9278354    0.1942759 
H    -6.4304905   -0.3516191   -1.4861969 
H    -5.1736984   -1.4830230   -0.9066155 
C     2.0989400    4.8498296   -2.2420507 
H     2.9408307    5.5134421   -1.9825722 
H     2.5090231    3.9343607   -2.7021094 
H     1.4969199    5.3683923   -3.0117389 
C     0.1679793    6.1812375    2.2649954 
H    -0.5734863    6.9524479    1.9833065 
H    -0.1758659    5.7136154    3.2024507 
H     1.1193892    6.7032388    2.4654982 
