106
Energy =
C    -3.1418684   -0.9684277   -1.3845823 
C    -3.1190439   -1.7013749   -0.1690283 
C    -2.9875391   -1.0426940    1.0819424 
H    -3.0287207   -2.7934489   -0.2043627 
Pd   -1.2398488   -0.5355224   -0.2571555 
P     0.4095188    0.0428431    1.2965033 
P    -0.0719596    0.3764609   -2.0529054 
H    -3.4831084    0.0760120   -1.3369700 
H    -3.2794279    0.0182425    1.1199676 
C    -3.0570420   -2.5776210   -5.3752923 
C    -3.2548061   -1.2068783   -5.1546577 
C    -3.3046076   -0.7050390   -3.8489005 
C    -3.1382287   -1.5590506   -2.7348304 
C    -2.9473592   -2.9398564   -2.9734200 
C    -2.9135246   -3.4423702   -4.2776238 
H    -3.0222510   -2.9732368   -6.3954834 
H    -3.3795068   -0.5248264   -6.0021410 
H    -3.4757894    0.3640985   -3.6854731 
H    -2.8187758   -3.6317790   -2.1343649 
H    -2.7702992   -4.5156487   -4.4412804 
C    -2.8414569   -2.8771957    4.9666619 
C    -2.6983788   -1.4889379    4.8203398 
C    -2.7431464   -0.9097844    3.5490567 
C    -2.9229349   -1.7058412    2.3939686 
C    -3.0572389   -3.1040307    2.5564929 
C    -3.0258733   -3.6804152    3.8303050 
H    -2.8126612   -3.3315693    5.9622276 
H    -2.5495274   -0.8559522    5.7008490 
H    -2.6253257    0.1742522    3.4384815 
H    -3.2127761   -3.7483625    1.6852720 
H    -3.1467716   -4.7631716    3.9380270 
Fe    3.3659276    1.2622152   -2.1688020 
C     1.4289531    1.2992319   -1.5965252 
C     2.2909891    0.9993167   -0.4586917 
C     3.1986872    2.1060810   -0.3177767 
C     2.9174960    3.0722592   -1.3362915 
C     1.8313403    2.5833601   -2.1291959 
C     3.6742585    0.7668367   -4.1201048 
C     4.6579952    1.7141414   -3.6795560 
C     5.3667310    1.1369791   -2.5728375 
C     4.8259534   -0.1697797   -2.3339231 
C     3.7765455   -0.3994805   -3.2859149 
C     2.1370558   -0.1374123    0.5189701 
H     3.9858048    2.1782415    0.4354504 
H     3.4629498    4.0022542   -1.5061333 
H     1.3763407    3.0805308   -2.9871895 
H     2.9554812    0.9167383   -4.9258807 
H     4.8185541    2.7116618   -4.0928754 
H     6.1625211    1.6162216   -1.9997084 
H     5.1572298   -0.8604666   -1.5567865 
H     3.1565779   -1.2954111   -3.3578958 
H     2.8528311    0.0134572    1.3460072 
C     2.3300219   -1.5448909   -0.0638025 
H     3.3536242   -1.6393883   -0.4580546 
H     2.1802376   -2.3219719    0.7040006 
H     1.6313430   -1.7314743   -0.8968099 
C    -1.0987965    1.6247022   -2.8745166 
C    -1.1939278    2.1220281   -4.1575046 
C    -2.2354953    3.1054866   -4.1382134 
C    -2.7048036    3.1444772   -2.8484656 
H    -0.5922085    1.8019233   -5.0067295 
H    -2.5919408    3.7059758   -4.9754982 
H    -3.4759293    3.7235501   -2.3422674 
O    -2.0280627    2.2509180   -2.0687603 
C     0.3021954   -0.7988819   -3.3683204 
C     0.2775999   -2.1777508   -3.3610961 
C     0.6821054   -2.6035323   -4.6666689 
C     0.9189369   -1.4577033   -5.3836980 
H    -0.0128285   -2.8039692   -2.5181310 
H     0.7718373   -3.6266909   -5.0306036 
H     1.2357111   -1.2625058   -6.4073690 
O     0.6975281   -0.3539058   -4.6116278 
C     0.1832276    4.5844825    2.1217178 
C     1.2993058    3.8749652    2.6133779 
C     1.3592341    2.4893803    2.3947742 
C     0.3204349    1.8236453    1.7098412 
C    -0.7781084    2.5577335    1.2315890 
C    -0.8583890    3.9505458    1.4245961 
H     0.1328746    5.6684848    2.2824095 
H     2.2321734    1.9321313    2.7531920 
H    -1.5696509    2.0426260    0.6730540 
C     0.6517706   -2.5178738    5.1338415 
C     0.4310750   -3.1341375    3.8880809 
C     0.3345000   -2.3156463    2.7501400 
C     0.4912289   -0.9182576    2.8493250 
C     0.6882064   -0.3265164    4.1119475 
C     0.7687086   -1.1218397    5.2686262 
H     0.7120194   -3.1450705    6.0317318 
H     0.1108715   -2.7700197    1.7769446 
H     0.7598083    0.7612897    4.2060064 
C     2.4115153    4.6015491    3.3366392 
H     3.1673880    3.9008424    3.7276454 
H     2.9219121    5.3104636    2.6591098 
H     2.0173032    5.1900914    4.1840289 
C    -2.0144639    4.7368963    0.8473141 
H    -2.9544235    4.1602435    0.8897605 
H    -2.1664395    5.6891763    1.3812206 
H    -1.8214330    4.9759838   -0.2157517 
C     0.3038534   -4.6361719    3.7773399 
H     1.3020471   -5.1124688    3.7536770 
H    -0.2410920   -5.0558108    4.6396237 
H    -0.2305335   -4.9266821    2.8577649 
C     0.9349366   -0.4931173    6.6343343 
H    -0.0055881   -0.5659414    7.2124522 
H     1.7164585   -1.0070496    7.2205832 
H     1.2021772    0.5738265    6.5612365 
