112
Energy =
C     2.7092102    1.4874819   -1.2171835 
C     1.6946912    2.2012506   -1.9215645 
C     0.7208236    2.9610510   -1.2395210 
H     1.6036429    2.0646820   -3.0061053 
Pd    0.6889313    0.7241743   -0.6054518 
P    -1.5550932    0.1755567   -0.2127991 
P     1.5254806   -0.9007888    0.8480920 
H     3.0262559    1.8891809   -0.2437921 
H     0.9404985    3.2177904   -0.1918474 
C     5.6292457   -1.0253132   -3.1489551 
C     5.8933222   -0.4534120   -1.8960550 
C     4.9394219    0.3672121   -1.2822246 
C     3.6942057    0.6241663   -1.8981956 
C     3.4432593    0.0392360   -3.1626786 
C     4.4015699   -0.7687264   -3.7822251 
H     6.3756271   -1.6636794   -3.6324891 
H     6.8509252   -0.6390564   -1.3987346 
H     5.1629378    0.8351589   -0.3183133 
H     2.4793041    0.1999058   -3.6583743 
H     4.1881308   -1.2089704   -4.7620517 
C    -2.3078664    5.4833441   -2.9631098 
C    -2.0501115    5.5054453   -1.5837299 
C    -1.0604795    4.6775215   -1.0428029 
C    -0.3168063    3.7956245   -1.8628711 
C    -0.5786438    3.7965686   -3.2533919 
C    -1.5585163    4.6345841   -3.7949350 
H    -3.0771373    6.1338052   -3.3913268 
H    -2.6156872    6.1768877   -0.9295408 
H    -0.8522323    4.7110993    0.0315154 
H    -0.0080658    3.1449772   -3.9226214 
H    -1.7382137    4.6296933   -4.8748099 
Fe   -0.2628250   -3.6710584    2.2403367 
C     0.2555873   -1.7442174    1.8455627 
C    -1.1127169   -2.0073783    1.4199759 
C    -1.8434420   -2.4365345    2.5850297 
C    -0.9561589   -2.4470813    3.7117489 
C     0.3394208   -2.0324456    3.2632581 
C    -1.0166854   -5.5577030    2.4572531 
C    -0.6660586   -5.3232976    1.0866662 
C     0.7302170   -4.9965587    1.0314489 
C     1.2453750   -5.0421392    2.3715569 
C     0.1664061   -5.3879062    3.2515373 
C     2.3821046    0.1563883    2.0856064 
C     3.7846888    0.2694852    2.1514424 
C     4.3763790    1.2004281    3.0198111 
C     3.5787144    2.0277756    3.8228692 
C     2.1792906    1.9200890    3.7612080 
C     1.5835561    0.9937394    2.8978649 
C     2.7247050   -2.1606384    0.2874337 
C     2.7800564   -2.4809907   -1.0811714 
C     3.6439204   -3.4871146   -1.5355659 
C     4.4614775   -4.1718030   -0.6253665 
C     4.4141673   -3.8517691    0.7417531 
C     3.5473964   -2.8522570    1.2008962 
C    -1.7073890   -1.6974518    0.0688361 
H    -2.8948884   -2.7311220    2.5957116 
H    -1.2114892   -2.7597183    4.7259100 
H     1.2353883   -1.9310507    3.8781467 
H    -2.0121110   -5.8032974    2.8318837 
H    -1.3510924   -5.3859947    0.2396490 
H     1.3028912   -4.7461104    0.1365898 
H     2.2744051   -4.8442330    2.6700020 
H     0.2278735   -5.4800755    4.3375395 
H     4.4164233   -0.3692986    1.5280121 
H     0.4923609    0.9136033    2.8559985 
H     2.1542323   -1.9320503   -1.7911539 
H     3.5055953   -2.6134904    2.2688185 
H     5.4678563    1.2746356    3.0686323 
H     1.5489379    2.5590249    4.3886532 
H     3.6856643   -3.7243907   -2.6028889 
H     5.0526929   -4.3867389    1.4525973 
H     4.0447104    2.7522647    4.4984829 
H     5.1401029   -4.9546720   -0.9793299 
H    -2.7913102   -1.9050473    0.1229033 
C    -1.1097103   -2.5066987   -1.0941336 
H    -1.6685706   -2.3470369   -2.0298658 
H    -0.0535562   -2.2415759   -1.2685919 
H    -1.1502602   -3.5771925   -0.8461825 
H    -3.5085315   -0.3265406   -1.5342815 
H    -1.5954282    0.3235950    2.1238807 
C    -3.0306484    0.3898540   -4.1545023 
C    -2.0270516    0.3265296   -2.9889854 
C    -2.7525838    0.4803081   -1.6296974 
C    -3.4907560    1.8370809   -1.6008889 
C    -4.5056809    1.9178350   -2.7580502 
C    -3.8420519    1.6947077   -4.1261653 
H    -3.7157893   -0.4783021   -4.0860068 
H    -2.4923597    0.2906850   -5.1146136 
H    -1.2932757    1.1503426   -3.0782470 
H    -1.4498786   -0.6119615   -3.0335714 
H    -4.0175793    1.9813798   -0.6439639 
H    -2.7556783    2.6556888   -1.6922531 
H    -5.2928844    1.1542500   -2.5991337 
H    -5.0088232    2.9013035   -2.7327070 
H    -3.1648125    2.5426868   -4.3357524 
H    -4.6050399    1.6895092   -4.9249364 
C    -4.0475719    0.9363281    3.1538007 
C    -3.6989800    0.4846564    1.7226651 
C    -2.2366441    0.8544807    1.3909100 
C    -1.9688199    2.3627925    1.5728852 
C    -2.3361604    2.8068430    3.0003312 
C    -3.7885459    2.4396754    3.3491172 
H    -3.4311243    0.3583913    3.8706231 
H    -5.1027509    0.6942001    3.3737765 
H    -4.3843309    0.9744042    1.0069665 
H    -3.8584502   -0.6028164    1.6226490 
H    -0.9038251    2.5734524    1.3658202 
H    -2.5565525    2.9442765    0.8403821 
H    -1.6512023    2.3130496    3.7190138 
H    -2.1750092    3.8949888    3.1067727 
H    -4.4750878    3.0150580    2.6969025 
H    -4.0190549    2.7355212    4.3879780 
