90
Energy =
C     2.7094434    0.8070569   -0.8812331 
C     2.9664092   -0.3283502   -0.0516592 
C     2.4315396   -1.5879696   -0.3838934 
H     3.5182604   -0.1927014    0.8870536 
Pd    0.7968323    0.0688756   -0.0135326 
P    -0.8838496   -1.1939607    1.0938307 
P    -0.5795360    1.7414184   -1.0381215 
H     2.5706920    0.6098214   -1.9547729 
H     2.0259645   -1.6969484   -1.4014136 
C     4.3381411    4.6775508    0.0660464 
C     4.3770360    4.1934009   -1.2498223 
C     3.8361758    2.9371727   -1.5539706 
C     3.2544176    2.1394029   -0.5448567 
C     3.2264275    2.6366691    0.7790030 
C     3.7606821    3.8940662    1.0801754 
H     4.7545192    5.6619459    0.3025606 
H     4.8293304    4.7971228   -2.0433867 
H     3.8698653    2.5637981   -2.5838049 
H     2.7494431    2.0427840    1.5680603 
H     3.7221251    4.2701644    2.1078205 
C     3.2259328   -5.3871011    1.4548867 
C     3.7179084   -4.2147296    2.0533701 
C     3.4588885   -2.9659545    1.4808231 
C     2.7053754   -2.8625912    0.2877662 
C     2.2323485   -4.0557908   -0.3125578 
C     2.4832506   -5.3040312    0.2664087 
H     3.4307743   -6.3621897    1.9082929 
H     4.3081844   -4.2767284    2.9732476 
H     3.8510541   -2.0654994    1.9636275 
H     1.6662950   -3.9940501   -1.2496350 
H     2.1090288   -6.2139830   -0.2133861 
Fe   -2.4699010   -1.0551182   -1.9864090 
C    -2.1280510   -1.7718198   -0.1100105 
C    -1.8132212   -2.7601436   -1.1194320 
H    -0.8360629   -3.2218998   -1.2743139 
C    -3.0002775   -3.0212716   -1.8803283 
H    -3.0794828   -3.7067151   -2.7259231 
C    -4.0500581   -2.1903414   -1.3666285 
H    -5.0712450   -2.1363526   -1.7479731 
C    -3.5208607   -1.4204840   -0.2773508 
C    -1.5387597    0.7292349   -2.2181494 
C    -2.9047876    0.8140142   -2.6878036 
H    -3.6750124    1.4912776   -2.3237246 
C    -3.0859810   -0.1596132   -3.7221508 
H    -4.0203972   -0.3587946   -4.2501554 
C    -1.8443505   -0.8503257   -3.9161121 
H    -1.6656154   -1.6657486   -4.6191209 
C    -0.8885516   -0.3084919   -2.9960490 
C    -1.7669240    2.8943475   -0.1269743 
C     0.2788127    2.9520767   -2.2301591 
H    -4.0837501   -0.7029608    0.3206667 
H     0.1520193   -0.6231516   -2.8905481 
C    -0.3094506   -2.8100857    1.8696077 
C    -1.8102878   -0.2025786    2.3880175 
H    -1.8781519    3.7422412   -0.8263993 
H     1.1534735    2.3788069   -2.5864457 
H     0.3353848   -3.2121587    1.0683477 
H    -2.2862458    0.5711365    1.7616119 
C     0.5836281   -2.5536657    3.0954422 
H     1.1481150   -3.4696080    3.3367034 
H     1.3149136   -1.7468363    2.9128352 
H    -0.0178269   -2.2862067    3.9807213 
C    -1.3997833   -3.8582289    2.1553628 
H    -0.9101095   -4.8206744    2.3897795 
H    -2.0238486   -3.5836784    3.0198583 
H    -2.0612593   -4.0202506    1.2887863 
C    -0.8346431    0.5096654    3.3482935 
H    -1.3671880    1.3106300    3.8904455 
H    -0.4283272   -0.1833494    4.1009951 
H     0.0154662    0.9626939    2.8078731 
C    -2.9099452   -0.9550781    3.1578699 
H    -3.5375774   -0.2260289    3.7014441 
H    -3.5666188   -1.5452071    2.4984988 
H    -2.4748801   -1.6366077    3.9074999 
C    -3.1731398    2.3142091    0.1580502 
H    -3.5076214    2.5995666    1.1701612 
H    -3.9182717    2.7035109   -0.5539197 
H    -3.1969626    1.2163138    0.0838127 
C    -1.0854038    3.4156381    1.1533464 
H    -1.6765532    4.2485014    1.5731516 
H    -1.0248412    2.6229502    1.9131268 
H    -0.0624411    3.7819226    0.9732507 
C    -0.6056731    3.3020441   -3.4410768 
H    -0.0665447    4.0218494   -4.0830865 
H    -0.8533982    2.4191843   -4.0508524 
H    -1.5516156    3.7830167   -3.1313019 
C     0.7829062    4.2309790   -1.5377122 
H     1.4219159    4.7887912   -2.2433367 
H    -0.0540982    4.8944703   -1.2580839 
H     1.3864025    4.0257324   -0.6409559 
