132
Energy =
C     1.6343443   -2.8333228   -0.2801158 
C     1.5532441   -3.0012351    1.1309506 
C     0.3212066   -3.3232414    1.7504999 
H     2.4279842   -2.7519568    1.7453492 
Pd    0.2118845   -1.3465417    0.5865579 
P    -1.4800640   -0.1379291    1.7213209 
P     0.3345407    0.1500230   -1.2081249 
H     0.9097502   -3.3919796   -0.8920255 
H    -0.4475080   -3.7791842    1.1083455 
C     5.2591300   -1.8014076   -2.3588868 
C     4.9474900   -1.1628771   -1.1467525 
C     3.7707935   -1.4873079   -0.4635359 
C     2.8794509   -2.4539542   -0.9810412 
C     3.1993428   -3.0787792   -2.2046729 
C     4.3806931   -2.7595767   -2.8851608 
H     6.1788406   -1.5451986   -2.8948790 
H     5.6214298   -0.4035340   -0.7363023 
H     3.5237146   -0.9670098    0.4681371 
H     2.5130574   -3.8213381   -2.6248375 
H     4.6051289   -3.2512161   -3.8373761 
C    -0.3801175   -4.0119174    5.9391381 
C    -1.3470414   -4.3524986    4.9808137 
C    -1.0968893   -4.1292877    3.6217637 
C     0.1188525   -3.5486392    3.1898053 
C     1.0879684   -3.2200897    4.1673328 
C     0.8408289   -3.4531458    5.5240946 
H    -0.5712588   -4.1874766    7.0025567 
H    -2.2967333   -4.7988707    5.2933612 
H    -1.8517747   -4.4048783    2.8763285 
H     2.0385799   -2.7669870    3.8684411 
H     1.6029515   -3.1931282    6.2659020 
Fe   -2.3212934    2.4253155   -2.2178902 
C    -1.3526364    0.7350036   -1.5886741 
C    -2.2501085    1.2320309   -0.5609226 
C    -3.5765465    1.2684290   -1.1196665 
C    -3.5090150    0.7984293   -2.4744088 
C    -2.1433081    0.4813195   -2.7739387 
C    -2.6633191    4.3912873   -1.7449929 
C    -1.2773425    4.1808451   -2.0457154 
C    -1.1919605    3.6701308   -3.3879465 
C    -2.5227906    3.5595914   -3.9076298 
C    -3.4333977    4.0018536   -2.8912660 
C     0.9446657   -0.5340109   -2.7905931 
C     2.1018837   -0.0621878   -3.4301460 
C     2.5657440   -0.6512323   -4.6206157 
C     1.8441035   -1.7421796   -5.1507308 
C     0.6958491   -2.2638540   -4.5065426 
C     0.2628929   -1.6489296   -3.3240501 
C     1.3927362    1.5737671   -0.7673848 
C     1.6124616    2.6485916   -1.6467426 
C     2.4224766    3.7349291   -1.2794489 
C     3.0049873    3.7267760    0.0120799 
C     2.8222719    2.6481904    0.9087662 
C     2.0152123    1.5775207    0.4941478 
C    -1.8296848    1.5223564    0.8534212 
H    -4.4756567    1.6259425   -0.6149826 
H    -4.3450890    0.7430420   -3.1742643 
H    -1.7582197    0.1213665   -3.7285826 
H    -3.0677050    4.7763132   -0.8073969 
H    -0.4406103    4.3677599   -1.3713199 
H    -0.2823542    3.4077667   -3.9300937 
H    -2.7964265    3.1792283   -4.8934915 
H    -4.5223237    4.0156375   -2.9669402 
H     2.6851304    0.7497882   -2.9864330 
H    -0.6131732   -2.0547055   -2.8026887 
H     1.1524341    2.6353730   -2.6375723 
H     1.8597898    0.7228022    1.1644474 
H    -0.8165952    1.9659934    0.8132905 
H    -1.8967701    1.2341593    3.6724141 
H    -2.7067739   -1.9737202    2.4864678 
C    -4.3089904   -3.0257655    0.5325764 
C    -3.2052404   -1.9622372    0.3949034 
C    -3.0053102   -1.2138179    1.7342718 
C    -4.3242953   -0.5674224    2.2047873 
C    -5.4236416   -1.6375744    2.3455868 
C    -5.6268227   -2.4069842    1.0294852 
H    -3.9765093   -3.8033493    1.2495630 
H    -4.4620862   -3.5337123   -0.4366566 
H    -3.4772487   -1.2417844   -0.3968758 
H    -2.2507602   -2.4273140    0.0795847 
H    -4.1844851   -0.0309549    3.1604727 
H    -4.6446451    0.1797683    1.4556030 
H    -5.1365919   -2.3457338    3.1481070 
H    -6.3682324   -1.1625300    2.6660291 
H    -6.0123112   -1.7106766    0.2585044 
H    -6.3940304   -3.1911353    1.1585510 
C     0.5410988    1.4663632    5.0433381 
C     0.2510853    0.9565743    3.6213138 
C    -1.1871862    0.4042591    3.4953093 
C    -1.4632883   -0.6808538    4.5543354 
C    -1.1652313   -0.1582253    5.9715635 
C     0.2708901    0.3754882    6.0911114 
H    -0.1005873    2.3452308    5.2514911 
H     1.5875024    1.8173144    5.1038894 
H     0.9595590    0.1425037    3.3663115 
H     0.4206598    1.7650229    2.8865363 
H    -2.5117143   -1.0208100    4.5006761 
H    -0.8301079   -1.5577682    4.3524122 
H    -1.8798832    0.6501658    6.2245170 
H    -1.3355308   -0.9732469    6.6977827 
H     0.9811339   -0.4602554    5.9374395 
H     0.4526127    0.7659572    7.1083155 
C    -2.7529840    2.5135348    1.5801516 
H    -2.8684328    3.4063497    0.9438699 
H    -3.7551141    2.1012769    1.7707625 
H    -2.3260815    2.8396814    2.5416393 
C     3.8319315   -0.1647094   -5.2840698 
H     4.3549121   -0.9993257   -5.7789633 
H     3.6157160    0.5979741   -6.0559629 
H     4.5088491    0.2925066   -4.5443089 
C     0.0059975   -3.4809142   -5.0751900 
H     0.7315637   -4.2963662   -5.2396815 
H    -0.7900506   -3.8388952   -4.4022098 
H    -0.4504694   -3.2627669   -6.0576391 
O     2.3194549   -2.4116752   -6.2576769 
C     1.9837722   -1.8486800   -7.5335393 
H     2.4167434   -2.5189165   -8.2909573 
H     0.8866636   -1.7974864   -7.6700862 
H     2.4086093   -0.8346600   -7.6557964 
C     2.6769991    4.8822450   -2.2291306 
H     3.6928604    5.2852612   -2.0871079 
H     2.5579853    4.5619150   -3.2770711 
H     1.9649749    5.7116170   -2.0565879 
C     3.4898348    2.6595728    2.2638716 
H     4.5195530    3.0458327    2.1878647 
H     2.9491640    3.3171814    2.9704477 
H     3.5120269    1.6487962    2.7028382 
O     3.8420225    4.7547813    0.3818866 
C     3.2116209    5.8981977    0.9759761 
H     4.0178017    6.6083644    1.2121153 
H     2.4961412    6.3737875    0.2786161 
H     2.6787644    5.6227897    1.9061520 
