112
Energy =
C     1.2961617    1.8031615    1.9385957 
C     0.9341408    2.8021723    0.9976358 
C    -0.4228063    3.1829586    0.8030881 
H     1.6985719    3.1881859    0.3107606 
Pd   -0.1395196    0.9984920    0.3909909 
P    -2.0245380    0.6901973   -0.9456349 
P     0.6468195   -1.2270640    0.2009893 
H     0.6169057    1.6403458    2.7896678 
H    -1.1033756    3.0916519    1.6626367 
C     5.3679443    0.6342702    2.6672685 
C     4.9828574    1.0416809    1.3785175 
C     3.6568469    1.4024104    1.1214566 
C     2.6844332    1.3556968    2.1476643 
C     3.0773836    0.9065577    3.4280212 
C     4.4096021    0.5644630    3.6888661 
H     6.4093339    0.3644435    2.8703912 
H     5.7209537    1.0791086    0.5706313 
H     3.3707915    1.7049614    0.1095976 
H     2.3326021    0.8485855    4.2294232 
H     4.6997805    0.2401322    4.6932967 
C    -1.6948029    6.0120586   -2.1811942 
C    -0.5926271    5.1781554   -2.4358148 
C    -0.1737852    4.2546930   -1.4734707 
C    -0.8497403    4.1400307   -0.2366886 
C    -1.9597596    4.9775828    0.0012064 
C    -2.3742755    5.9086724   -0.9593714 
H    -2.0222862    6.7353352   -2.9350232 
H    -0.0603303    5.2487785   -3.3902401 
H     0.6827322    3.6040498   -1.6849507 
H    -2.5004610    4.8969136    0.9497146 
H    -3.2371508    6.5499661   -0.7538968 
Fe   -2.9861954   -1.3221014    1.6455792 
C    -2.7980107   -0.8324191   -0.3313811 
C    -2.0620161   -2.0574426   -0.0435778 
C    -3.0153939   -3.0007498    0.4806088 
C    -4.3087500   -2.3868405    0.5188423 
C    -4.1826269   -1.0508854    0.0197928 
C    -3.8398210   -1.5507257    3.4817984 
C    -2.4667989   -1.9651322    3.5179326 
C    -1.6522505   -0.8418581    3.1473651 
C    -2.5252440    0.2630786    2.8850718 
C    -3.8776503   -0.1720429    3.0869966 
C    -1.7884267    0.4433908   -2.7492069 
C    -2.6890057   -0.3537590   -3.4855647 
C    -2.5054630   -0.5228416   -4.8636612 
C    -1.4313066    0.1057154   -5.5153126 
C    -0.5425895    0.9110870   -4.7879242 
C    -0.7198888    1.0791044   -3.4074057 
C    -3.3503408    1.9654733   -0.8919814 
C    -3.6804483    2.7167101   -2.0370899 
C    -4.6876764    3.6902994   -1.9722939 
C    -5.3752285    3.9235201   -0.7735031 
C    -5.0394379    3.1887102    0.3741969 
C    -4.0260829    2.2239950    0.3183005 
C    -0.6561057   -2.4382676   -0.4567271 
H    -2.7776210   -4.0192510    0.7952737 
H    -5.2271224   -2.8458404    0.8891649 
H    -4.9840665   -0.3164328   -0.0712302 
H    -4.7053057   -2.1794335    3.6979480 
H    -2.1113428   -2.9608522    3.7846671 
H    -0.5633922   -0.8225679    3.0964004 
H    -2.2061445    1.2630098    2.5873592 
H    -4.7792259    0.4292792    2.9562099 
H    -3.5218628   -0.8505473   -2.9763529 
H    -0.0334589    1.7102115   -2.8370599 
H    -3.1549357    2.5469223   -2.9808231 
H    -3.7726825    1.6417170    1.2048900 
H    -0.4228229   -3.3947283    0.0389031 
C    -0.5413070   -2.6659030   -1.9818446 
H    -1.4203653   -3.2350430   -2.3299472 
H    -0.5011009   -1.7208528   -2.5433440 
H     0.3674608   -3.2399687   -2.2202213 
H    -3.2015126   -1.1483672   -5.4321010 
H     0.2917747    1.4077976   -5.2938692 
H    -4.9321696    4.2697720   -2.8682566 
H    -5.5674811    3.3664327    1.3171292 
H    -1.2896568   -0.0319196   -6.5922839 
H    -6.1660789    4.6794866   -0.7307876 
C     3.9883463   -1.1463501   -3.0059147 
C     3.8041340   -2.3324045   -2.2656993 
C     2.7983455   -2.3604924   -1.2833882 
C     1.9968268   -1.2266555   -1.0462000 
C     2.2079791   -0.0589315   -1.7981029 
C     3.2009435   -0.0008577   -2.7916541 
H     4.7759458   -1.1157837   -3.7690638 
H     2.6508763   -3.2699149   -0.6898842 
H     1.5873062    0.8212413   -1.5865337 
C     4.6572755   -3.5517106   -2.5384378 
H     4.3007820   -4.0827479   -3.4409836 
H     5.7095476   -3.2728442   -2.7187965 
H     4.6255722   -4.2635151   -1.6972411 
C     3.4003619    1.2522449   -3.6155640 
H     4.4705567    1.4923221   -3.7370617 
H     2.9779039    1.1230824   -4.6296710 
H     2.9018185    2.1219824   -3.1542878 
C     2.4821077   -3.7495480    3.6406120 
C     1.1047333   -3.8494149    3.3795731 
C     0.5644873   -3.0631992    2.3463460 
C     1.3711968   -2.1760467    1.6068104 
C     2.7444919   -2.0720307    1.9129134 
C     3.3161601   -2.8772222    2.9155674 
H     2.9237559   -4.3823230    4.4202882 
H    -0.5018139   -3.1483240    2.1167747 
H     3.3867402   -1.3951767    1.3408253 
C     0.2206941   -4.7737926    4.1882522 
H    -0.6425784   -5.1263625    3.5980483 
H     0.7768572   -5.6568133    4.5444632 
H    -0.1749289   -4.2535954    5.0813879 
C     4.8009373   -2.8365045    3.2006412 
H     5.2251712   -3.8560049    3.2136136 
H     5.3408142   -2.2423184    2.4471195 
H     5.0014287   -2.3875750    4.1904336 
