124
Energy =
C     3.1622524   -1.1164917    1.3227794 
C     3.0786957   -1.9728875    0.2010988 
C     3.0700214   -1.4693283   -1.1342617 
H     2.8479023   -3.0337597    0.3632688 
Pd    1.3448424   -0.6363357   -0.0001900 
P    -0.1248106   -0.1327153   -1.7374831 
P    -0.3432699   -0.0008028    1.5486600 
H     3.5349841   -0.0936904    1.1539479 
H     3.6492862   -0.5576853   -1.3366611 
C     3.3075050   -2.3694381    5.4366361 
C     3.1195214   -1.0183585    5.1073105 
C     3.0639306   -0.6245030    3.7673963 
C     3.1872158   -1.5705527    2.7235386 
C     3.3802706   -2.9280636    3.0725193 
C     3.4403176   -3.3211303    4.4135794 
H     3.3550234   -2.6788879    6.4856787 
H     3.0109148   -0.2695668    5.8980745 
H     2.9115590    0.4314044    3.5206654 
H     3.5178870   -3.6812923    2.2902258 
H     3.6037835   -4.3748915    4.6622726 
C     2.2737905   -3.9249846   -4.5840111 
C     1.6561136   -4.2186889   -3.3567233 
C     1.9112605   -3.4276972   -2.2319524 
C     2.7996456   -2.3289170   -2.3066604 
C     3.4175390   -2.0495795   -3.5450482 
C     3.1561285   -2.8388600   -4.6716886 
H     2.0656919   -4.5391434   -5.4661751 
H     0.9628376   -5.0633519   -3.2796897 
H     1.3885911   -3.6417342   -1.2924757 
H     4.1008966   -1.1982689   -3.6261337 
H     3.6405031   -2.5981451   -5.6234376 
Fe   -3.3022772   -1.9639755   -1.6843050 
C    -1.3675640   -1.4096972   -1.3770961 
C    -2.0861535   -1.4575412   -0.1105234 
C    -2.6098452   -2.7883729    0.0392458 
C    -2.2042913   -3.5703972   -1.0903231 
C    -1.4392209   -2.7343701   -1.9636138 
C    -4.2513923   -0.8026597   -3.0950418 
C    -4.2983365   -2.1896391   -3.4577260 
C    -4.9620760   -2.9002579   -2.4014139 
C    -5.3167476   -1.9528787   -1.3817703 
C    -4.8753263   -0.6553748   -1.8085691 
C    -2.1187513   -0.3518633    0.9110962 
H    -3.2335660   -3.1378167    0.8629649 
H    -2.4665496   -4.6135036   -1.2764837 
H    -0.9757706   -3.0471177   -2.8986762 
H    -3.8167629   -0.0030461   -3.6982162 
H    -3.8969193   -2.6281947   -4.3732279 
H    -5.1438816   -3.9759734   -2.3674579 
H    -5.8215770   -2.1831045   -0.4416823 
H    -4.9984047    0.2760058   -1.2521916 
H    -2.3655246    0.5913223    0.3944584 
C    -3.1233747   -0.5965651    2.0449350 
H    -3.1360138    0.2377479    2.7643216 
H    -4.1353330   -0.7083937    1.6163612 
H    -2.8789650   -1.5100666    2.6111342 
C    -0.1094798   -1.9477856    5.7959671 
C    -0.3086378   -0.5626141    5.6365758 
C    -0.3778252    0.0040841    4.3630102 
C    -0.2605622   -0.7940531    3.2031070 
C    -0.0723122   -2.1946634    3.3380826 
C     0.0018792   -2.7323326    4.6364867 
H    -0.3972453    0.0820312    6.5182994 
H    -0.5175850    1.0848819    4.2652697 
H     0.1677259   -3.8110146    4.7421508 
C    -0.1538244    4.5338194    2.4776698 
C     1.0316294    3.7773323    2.3809579 
C     0.9243386    2.4096983    2.0851240 
C    -0.3353933    1.8001716    1.9063275 
C    -1.4983552    2.5825862    1.9992262 
C    -1.4208075    3.9613290    2.2820594 
H    -0.0834277    5.6079575    2.6855280 
H     1.8334975    1.8066439    1.9748138 
H    -2.4861864    2.1398494    1.8430920 
C    -0.0116892   -2.5637972    7.1717505 
H    -0.9923242   -2.5444893    7.6824889 
H     0.3253754   -3.6120111    7.1241321 
H     0.6950347   -2.0009747    7.8070334 
C     0.0197476   -3.1393652    2.1611355 
H     0.2783519   -2.6149106    1.2210660 
H     0.7789567   -3.9172161    2.3454134 
H    -0.9441512   -3.6492498    1.9889131 
C     2.3795318    4.4377674    2.5643570 
H     3.2062883    3.7221072    2.4226194 
H     2.5135778    5.2656542    1.8444224 
H     2.4738292    4.8719219    3.5759527 
C    -2.6791801    4.7925663    2.3896059 
H    -2.4823874    5.8485977    2.1442952 
H    -3.4605661    4.4214701    1.7055301 
H    -3.0870948    4.7543931    3.4173291 
C     0.6932057   -0.3242215   -6.3297256 
C    -0.4567216   -0.8719143   -5.7898208 
C    -0.6872190   -0.8091795   -4.3930874 
C     0.2357343   -0.2097882   -3.5381356 
H     0.8803121   -0.3761961   -7.4077896 
H    -1.1975935   -1.3555350   -6.4346628 
H    -1.6110228   -1.2256027   -3.9820107 
C     1.4174197    0.4110803   -4.0759199 
C     1.6461864    0.3333849   -5.4992834 
C     2.8242087    0.9213575   -6.0479574 
C     3.7350916    1.5846611   -5.2427345 
C     3.4989876    1.6860721   -3.8469307 
C     2.3717227    1.1105141   -3.2827476 
H     2.9919793    0.8464230   -7.1279736 
H     4.6316264    2.0363817   -5.6791071 
H     4.2156994    2.2178115   -3.2119750 
H     2.2166621    1.1745573   -2.2024624 
C    -0.0074016    2.5976323   -1.1930942 
C    -0.8484751    1.5455386   -1.5384112 
C    -2.2325299    1.7947429   -1.7675401 
C    -2.7477456    3.0708298   -1.6262229 
H     1.0505232    2.4172833   -0.9755118 
H    -2.8723989    0.9486018   -2.0230879 
H    -3.8173245    3.2506930   -1.7833961 
C    -1.9029840    4.1734469   -1.2956612 
C    -0.4968573    3.9296629   -1.0930567 
C     0.3617259    5.0252241   -0.7875756 
C    -0.1454645    6.3090400   -0.6761871 
C    -1.5345824    6.5481860   -0.8590905 
C    -2.3945068    5.5040543   -1.1635090 
H     1.4301508    4.8333442   -0.6417963 
H     0.5218711    7.1459711   -0.4456725 
H    -1.9238480    7.5674754   -0.7663437 
H    -3.4633662    5.6921637   -1.3125714 
