110
Energy =
C    -3.5344496    0.8299830    0.1769857 
C    -2.6875953    1.9671573    0.0589905 
C    -1.9447532    2.2148818   -1.1152584 
H    -2.5306017    2.6126209    0.9317237 
Pd   -1.3425958    0.2224232   -0.1233295 
P     0.9464557    0.6169705   -0.3352655 
P    -1.1783437   -2.1136929    0.3878086 
H    -3.9590318    0.4359309   -0.7553922 
H    -2.2289051    1.6501708   -2.0169757 
C    -5.8568346   -0.0325662    3.6985422 
C    -4.6586280    0.6922945    3.8130352 
C    -3.8966722    0.9783352    2.6761748 
C    -4.3162964    0.5483348    1.3942274 
C    -5.5320484   -0.1667840    1.2938621 
C    -6.2919665   -0.4567375    2.4338365 
H    -6.4496956   -0.2600915    4.5901733 
H    -4.3147924    1.0299159    4.7962996 
H    -2.9531420    1.5240565    2.7867105 
H    -5.8844050   -0.4907273    0.3086520 
H    -7.2309519   -1.0109162    2.3339804 
C     0.2759862    5.7808155   -2.0238499 
C     0.2459765    4.7073067   -2.9280406 
C    -0.4642554    3.5446169   -2.6092791 
C    -1.1464904    3.4228000   -1.3750699 
C    -1.0951878    4.5094052   -0.4703989 
C    -0.3978566    5.6767103   -0.7954477 
H     0.8178297    6.6981712   -2.2761989 
H     0.7639974    4.7803047   -3.8899676 
H    -0.5020171    2.7194730   -3.3275566 
H    -1.6129351    4.4543056    0.4915999 
H    -0.3694172    6.5034207   -0.0794613 
Fe    3.6088170   -1.7021445    0.3065940 
C     1.9492954   -0.5655784    0.6133311 
C     1.6307511   -1.9798363    0.7199925 
C     2.4612997   -2.5242072    1.7644465 
C     3.2746202   -1.4707696    2.3007704 
C     2.9732948   -0.2639282    1.5913267 
C     4.2130009   -3.0410582   -1.1367435 
C     4.2287542   -1.7060645   -1.6532433 
C     5.1166193   -0.9253942   -0.8354762 
C     5.6433809   -1.7824641    0.1875043 
C     5.0804343   -3.0896274    0.0046471 
C     1.3182842    2.2074808    0.5104438 
C     0.8477443    2.3159528    1.8398378 
C     1.0239366    3.4994530    2.5611639 
C     1.6781501    4.5896518    1.9621513 
C     2.1556124    4.4872098    0.6492832 
C     1.9653275    3.3063412   -0.0799376 
C     1.6047104    0.7173435   -2.0433950 
C     2.8976188    1.1989514   -2.3329749 
C     3.3410453    1.2780899   -3.6563859 
C     2.5038392    0.8511789   -4.7020357 
C     1.2309754    0.3321048   -4.4228091 
C     0.7828677    0.2745195   -3.0967824 
C     0.5886618   -2.6991629   -0.0988131 
H     2.5013303   -3.5694587    2.0740269 
H     4.0267977   -1.5803294    3.0840257 
H     3.4231403    0.7158559    1.7579292 
H     3.6447852   -3.8764591   -1.5485274 
H     3.6674371   -1.3527152   -2.5183891 
H     5.3635414    0.1290223   -0.9654158 
H     6.3322063   -1.4861870    0.9807106 
H     5.2649339   -3.9615798    0.6347096 
H     0.3410573    1.4653193    2.3089915 
H     2.2914335    3.2733353   -1.1212461 
H     3.5658833    1.4968369   -1.5210096 
H    -0.2188265   -0.1094384   -2.8716711 
H     0.6557127   -2.2956411   -1.1263467 
C     0.8665877   -4.2133416   -0.1663372 
H     0.2936901   -4.7025369   -0.9667295 
H     1.9373179   -4.3495323   -0.3877292 
H     0.6527207   -4.7326237    0.7775848 
C     1.7739973    5.9105337    2.6912762 
F     0.7068956    6.7016567    2.3832950 
F     1.7740486    5.7508943    4.0324126 
F     2.8862808    6.5959664    2.3489857 
H     0.6580418    3.5816745    3.5886653 
H     2.6549631    5.3405023    0.1823613 
H     4.3426950    1.6554714   -3.8823463 
H     0.5950942   -0.0180530   -5.2407454 
C     2.9668179    1.0036716   -6.1367295 
F     2.3307369    0.1438103   -6.9625900 
F     2.7190608    2.2585483   -6.5859609 
F     4.2963216    0.7892272   -6.2526973 
C    -2.3396001   -3.1635149   -0.7316973 
C    -1.4412182   -2.4686126    2.2545400 
C    -3.7383238   -2.5102444   -0.7701040 
H    -4.4079701   -3.1465127   -1.3771390 
H    -4.1891845   -2.3987335    0.2260889 
H    -3.6951674   -1.5183902   -1.2455842 
C    -0.7961103   -3.7777074    2.7518005 
H    -1.0406563   -3.8981965    3.8233043 
H    -1.1803066   -4.6650020    2.2243208 
H     0.3005648   -3.7537221    2.6684704 
C    -1.7646254   -3.0870627   -2.1672122 
H    -2.5015998   -3.5170254   -2.8692507 
H    -1.5904773   -2.0372222   -2.4680658 
H    -0.8252262   -3.6478064   -2.2924768 
C    -2.4953834   -4.6336205   -0.2821056 
H    -3.1030004   -5.1670950   -1.0362162 
H    -1.5391392   -5.1666214   -0.1904144 
H    -3.0279293   -4.7100754    0.6790222 
C    -0.8072552   -1.2687761    3.0012434 
H    -0.9425233   -1.4121949    4.0891169 
H     0.2729237   -1.1747790    2.8018508 
H    -1.3062954   -0.3256214    2.7174552 
C    -2.9510816   -2.4978259    2.5699803 
H    -3.4440145   -3.4001251    2.1744095 
H    -3.0788191   -2.5059215    3.6674588 
H    -3.4717016   -1.6089523    2.1866945 
