112
Energy =
C     2.6043465    2.0774508   -1.2092463 
C     1.7424139    1.9370484   -2.3160325 
C     0.4159246    2.4828886   -2.2847711 
H     2.0394129    1.3034724   -3.1624376 
Pd    0.6374392    0.9679706   -0.6879616 
P    -1.5738366    0.5649154   -0.0483348 
P     1.5012964   -0.7675703    0.6313837 
H     2.3486976    2.8640348   -0.4820729 
H     0.2745884    3.4193923   -1.7258398 
C     6.6611523    0.7149070   -0.8203315 
C     6.1670045    1.7474839   -0.0103168 
C     4.8360576    2.1626538   -0.1374683 
C     3.9812747    1.5776543   -1.1005165 
C     4.5014164    0.5524217   -1.9252692 
C     5.8205972    0.1170276   -1.7764270 
H     7.6978747    0.3792365   -0.7143129 
H     6.8156059    2.2234632    0.7321158 
H     4.4479494    2.9526282    0.5145284 
H     3.8687744    0.0839654   -2.6830472 
H     6.1988384   -0.6892276   -2.4131543 
C    -2.3496847    1.8197982   -5.5262677 
C    -1.5565807    0.7610469   -5.0518508 
C    -0.6557323    0.9738557   -4.0030738 
C    -0.5298133    2.2477878   -3.3989808 
C    -1.3297518    3.3010079   -3.8890906 
C    -2.2276556    3.0901106   -4.9448713 
H    -3.0568126    1.6543871   -6.3454041 
H    -1.6466769   -0.2348669   -5.4984046 
H    -0.0611691    0.1368156   -3.6183536 
H    -1.2380578    4.2969423   -3.4416737 
H    -2.8372036    3.9218745   -5.3129515 
Fe   -0.3347035   -3.7359508    1.4826416 
C     0.2541946   -1.7860876    1.4955230 
C    -1.1567228   -1.9051341    1.1391068 
C    -1.8165542   -2.5613171    2.2388555 
C    -0.8476416   -2.8651871    3.2501941 
C     0.4293509   -2.4032734    2.7953432 
C     0.4990914   -4.7823442   -0.0713985 
C     1.0993721   -5.1567472    1.1790950 
C     0.0634693   -5.6557822    2.0372991 
C    -1.1772488   -5.5905075    1.3188465 
C    -0.9057050   -5.0577472    0.0154974 
C     2.5769353   -0.1662824    1.9900045 
C     3.9814705   -0.1405763    1.8864306 
C     4.7512596    0.4075253    2.9245689 
C     4.1332866    0.9513361    4.0579065 
C     2.7314663    0.9505562    4.1549096 
C     1.9586398    0.3966361    3.1291483 
C     2.5127116   -1.9290566   -0.3714383 
C     2.3479671   -1.9443511   -1.7696584 
C     3.0433342   -2.8717253   -2.5589463 
C     3.9242308   -3.7810136   -1.9554389 
C     4.0992907   -3.7666812   -0.5617984 
C     3.3917820   -2.8524824    0.2295227 
C    -1.8629904   -1.2988188   -0.0485691 
H    -2.8790085   -2.8121577    2.2724400 
H    -1.0397340   -3.3958150    4.1844724 
H     1.3742014   -2.4801515    3.3357810 
H     1.0221889   -4.3571122   -0.9294161 
H     2.1553653   -5.0733424    1.4352598 
H     0.1915355   -5.9998484    3.0652944 
H    -2.1576813   -5.8774211    1.7034447 
H    -1.6455097   -4.8941121   -0.7688942 
H     4.4815978   -0.5392961    0.9989458 
H     0.8679288    0.3885932    3.2176810 
H     1.6736004   -1.2173103   -2.2376585 
H     3.5206801   -2.8593120    1.3166022 
H     5.8422842    0.4132303    2.8348195 
H     2.2384792    1.3789028    5.0339096 
H     2.9032032   -2.8780424   -3.6448919 
H     4.7847124   -4.4776109   -0.0887400 
H     4.7393107    1.3776689    4.8639174 
H     4.4734777   -4.5027478   -2.5686744 
H    -2.9442134   -1.4507643    0.1038304 
C    -1.4690531   -1.8700311   -1.4227872 
H    -1.8873757   -1.2676099   -2.2481690 
H    -0.3735131   -1.8967138   -1.5356144 
H    -1.8441442   -2.8998693   -1.5213817 
H    -2.5758852    1.1820426   -2.1152189 
H    -1.1314635    0.3172525    2.2450300 
C    -4.1517120    3.4330974   -1.8239216 
C    -3.1678872    2.7839362   -0.8096121 
C    -2.9655596    1.2761662   -1.0846342 
C    -4.3038069    0.4862481   -0.9954520 
C    -5.5173507    1.3542155   -1.4123534 
C    -5.1134941    2.4054460   -2.4539666 
H    -3.5913251    3.9496693   -2.6188610 
H    -4.7336205    4.2086172   -1.2940304 
H    -3.5647312    2.9077333    0.2129324 
H    -2.1954195    3.3074969   -0.8341863 
H    -4.2326767   -0.3942778   -1.6588253 
H    -4.4738330    0.0988776    0.0233479 
H    -6.3214203    0.6995072   -1.7907908 
H    -5.9281341    1.8704823   -0.5236372 
H    -6.0017920    2.9194361   -2.8601999 
H    -4.6223021    1.9052031   -3.3109768 
C    -3.1886777    1.1674584    3.8503811 
C    -3.1990700    0.8876123    2.3355844 
C    -1.7826587    1.0627768    1.7464982 
C    -1.1895173    2.4564383    2.0602988 
C    -1.2135479    2.7325424    3.5751200 
C    -2.6255604    2.5638532    4.1594256 
H    -2.5684552    0.3985777    4.3523707 
H    -4.2120622    1.0631280    4.2531310 
H    -3.9023405    1.5833056    1.8416272 
H    -3.5689800   -0.1358954    2.1465218 
H    -0.1531767    2.5118164    1.6739323 
H    -1.7660241    3.2419312    1.5405299 
H    -0.5245126    2.0306927    4.0850900 
H    -0.8285502    3.7490396    3.7724111 
H    -3.2955040    3.3321767    3.7251215 
H    -2.6112582    2.7387052    5.2499322 
