112
Energy =
C     1.6669739    0.6550976   -2.8177221 
C     0.9066354    1.8499310   -2.7255157 
C     1.1931268    2.8297907   -1.7364753 
H    -0.0063601    1.9563683   -3.3253387 
Pd    0.7080910    0.8505625   -0.7709740 
P     0.2021395    1.6606105    1.3354935 
P     0.4506510   -1.4094622   -0.2493994 
H     2.6842395    0.6834090   -2.3966125 
H     2.2301116    2.8953521   -1.3737522 
C     1.0448416   -2.6398437   -5.5229162 
C     2.2351076   -2.5249596   -4.7893267 
C     2.4292416   -1.4321915   -3.9358561 
C     1.4323121   -0.4399392   -3.7756759 
C     0.2500745   -0.5574268   -4.5434322 
C     0.0622774   -1.6419605   -5.4067593 
H     0.8899324   -3.4897377   -6.1951555 
H     3.0199760   -3.2818097   -4.8901797 
H     3.3738313   -1.3352127   -3.3884827 
H    -0.5355988    0.2003064   -4.4641490 
H    -0.8580221   -1.7108954   -5.9960362 
C    -1.1291403    6.4001236   -1.1117254 
C    -1.7643735    5.2227507   -1.5430407 
C    -1.0199528    4.0585018   -1.7523734 
C     0.3761990    4.0408912   -1.5271178 
C     0.9990221    5.2277530   -1.0845841 
C     0.2548466    6.3982880   -0.8877675 
H    -1.7130289    7.3121458   -0.9503311 
H    -2.8466151    5.2124043   -1.7092738 
H    -1.5298387    3.1433583   -2.0716184 
H     2.0772711    5.2277707   -0.8915200 
H     0.7586644    7.3097942   -0.5495961 
Fe   -1.6568546   -1.8794585    2.6581495 
C     0.0028630   -1.8172737    1.4662239 
C     0.1592967   -0.9486218    2.6357235 
C     0.0119133   -1.7854699    3.8039868 
C    -0.2278429   -3.1319836    3.3908605 
C    -0.2439929   -3.1601561    1.9641982 
C    -3.4659229   -2.6042837    2.0311177 
C    -3.3123120   -2.7594210    3.4496905 
C    -3.1125999   -1.4560591    4.0197795 
C    -3.1447709   -0.4952037    2.9558099 
C    -3.3611427   -1.2051519    1.7291705 
C     0.6575723    0.4802526    2.7380264 
H     0.0526887   -1.4489377    4.8397382 
H    -0.4095414   -3.9823490    4.0504056 
H    -0.4153396   -4.0474636    1.3580122 
H    -3.6374920   -3.4094635    1.3145918 
H    -3.3234565   -3.7038366    3.9968536 
H    -2.9462628   -1.2392979    5.0766468 
H    -3.0313356    0.5828496    3.0598840 
H    -3.4456339   -0.7528591    0.7419699 
H     2.3786885   -1.9103571   -1.5132938 
C     3.6016844   -4.2631183   -0.7360577 
C     2.1687542   -3.7692973   -0.4529494 
C     2.1141926   -2.2299586   -0.4882511 
C     3.1322790   -1.6057860    0.4927978 
C     4.5572903   -2.1164273    0.2153340 
C     4.6163063   -3.6523957    0.2435189 
H     3.8783014   -3.9872961   -1.7731389 
H     3.6290387   -5.3663329   -0.6850024 
H     1.8465809   -4.1311704    0.5409733 
H     1.4778734   -4.1936865   -1.2016739 
H     3.0962886   -0.5008805    0.4129405 
H     2.8401644   -1.8636744    1.5297001 
H     4.8827716   -1.7545927   -0.7804558 
H     5.2589972   -1.6867494    0.9528649 
H     4.3916650   -4.0064130    1.2690631 
H     5.6371633   -4.0004968    0.0055746 
H    -0.1148724   -2.3260828   -2.3666654 
C    -2.8407457   -1.6996408   -2.8687461 
C    -1.8585155   -1.1644871   -1.8137115 
C    -0.7488750   -2.1852785   -1.4679136 
C    -1.3702045   -3.5384647   -1.0652911 
C    -2.3269931   -4.0630352   -2.1519145 
C    -3.4417024   -3.0493529   -2.4492393 
H    -2.3032072   -1.8258325   -3.8269034 
H    -3.6367416   -0.9528158   -3.0438202 
H    -2.4092148   -0.9255870   -0.8862673 
H    -1.3965042   -0.2199357   -2.1592381 
H    -0.5850967   -4.2868386   -0.8669644 
H    -1.9301799   -3.3939223   -0.1248763 
H    -1.7539130   -4.2640691   -3.0782817 
H    -2.7548531   -5.0284543   -1.8267459 
H    -4.0627973   -2.9111481   -1.5415386 
H    -4.1138412   -3.4322086   -3.2375519 
H     1.7558088    0.4311082    2.5887223 
C     0.3987164    1.0996922    4.1236509 
H     0.9682779    0.5569603    4.8961047 
H     0.7280736    2.1512295    4.1563436 
H    -0.6717049    1.0443073    4.3815206 
C     3.1190390    5.1748680    2.2690232 
C     3.5954005    3.8796541    2.0037207 
C     2.6946552    2.8437220    1.7322013 
C     1.3007952    3.0844334    1.7286474 
C     0.8349484    4.3932128    1.9546313 
C     1.7423192    5.4272016    2.2356015 
H     3.8228746    5.9843884    2.4877355 
H     4.6713387    3.6767011    2.0085077 
H     3.0816764    1.8412292    1.5122300 
H    -0.2318176    4.6217602    1.8890632 
H     1.3631968    6.4391211    2.4110857 
C    -4.2196966    3.0397297    1.7193839 
C    -3.3205567    3.3574705    2.7500871 
C    -1.9800468    2.9561731    2.6691340 
C    -1.5240440    2.2299193    1.5454703 
C    -2.4337276    1.9231241    0.5139853 
C    -3.7741679    2.3210383    0.6008823 
H    -5.2661861    3.3533775    1.7900664 
H    -3.6645333    3.9197347    3.6242136 
H    -1.2958318    3.2148315    3.4808448 
H    -2.0769129    1.3625811   -0.3563670 
H    -4.4701463    2.0706350   -0.2063895 
