124
Energy =
C     2.3262475    1.7379548    1.8876320 
C     2.0704590    0.6204420    2.7145799 
C     2.3396131   -0.7033534    2.2747042 
H     1.5707113    0.7713148    3.6788840 
Pd    0.7702255    0.2473678    0.9518600 
P    -0.1820928   -1.7674435    0.1826493 
P    -0.2396206    1.6268209   -0.6691765 
H     3.0333435    1.5875471    1.0594931 
H     3.0700638   -0.8104529    1.4590011 
C     1.8545279    5.8848927    2.9613448 
C     2.5792974    5.5135897    1.8189373 
C     2.7280133    4.1605520    1.4943796 
C     2.1435516    3.1435830    2.2871985 
C     1.4469074    3.5365283    3.4538966 
C     1.3033156    4.8879394    3.7833392 
H     1.7355846    6.9415231    3.2214934 
H     3.0405458    6.2783171    1.1851762 
H     3.3211944    3.8778679    0.6188287 
H     1.0068748    2.7820079    4.1124892 
H     0.7574967    5.1674482    4.6905408 
C     1.9501523   -4.2890233    4.6277658 
C     2.6939222   -4.2852990    3.4378916 
C     2.8137453   -3.1082566    2.6892757 
C     2.1837622   -1.9107971    3.1041708 
C     1.4362544   -1.9321935    4.3053738 
C     1.3282519   -3.1053516    5.0593945 
H     1.8594046   -5.2056200    5.2190768 
H     3.1908359   -5.1996188    3.0976124 
H     3.4124919   -3.1063205    1.7710717 
H     0.9229717   -1.0284942    4.6492777 
H     0.7508514   -3.0996446    5.9896312 
Fe   -2.2462188    0.4702354   -3.4857355 
C    -0.6884251    0.6623623   -2.1631308 
C    -1.2368667   -0.6886953   -2.1323727 
C    -1.1448341   -1.2324234   -3.4630666 
C    -0.5430404   -0.2532159   -4.3170617 
C    -0.2772896    0.9148016   -3.5331074 
C    -3.6847391    1.9164826   -3.2293732 
C    -3.1495697    1.9598602   -4.5579586 
C    -3.3751115    0.6790705   -5.1663594 
C    -4.0472064   -0.1563029   -4.2106692 
C    -4.2389367    0.6081851   -3.0118703 
C    -1.6986175   -1.4326749   -0.9057210 
H    -1.5058089   -2.2112259   -3.7810569 
H    -0.3626324   -0.3576832   -5.3883328 
H     0.1561953    1.8360354   -3.9178669 
H    -3.6802015    2.7401774   -2.5153887 
H    -2.6495265    2.8120684   -5.0216449 
H    -3.0685933    0.3834245   -6.1713585 
H    -4.3490142   -1.1934434   -4.3682888 
H    -4.7337258    0.2601671   -2.1033549 
H    -2.2634998   -0.7334101   -0.2678914 
C    -2.6234934   -2.6165017   -1.2346645 
H    -3.4324632   -2.2505920   -1.8913635 
H    -2.1022113   -3.4317815   -1.7582586 
H    -3.0839707   -3.0306165   -0.3249859 
H     1.2946402    3.3871294   -0.3096913 
C     1.5247596    5.0303966   -2.5623473 
C     0.4207437    4.0346750   -2.1574522 
C     0.9919145    2.9107743   -1.2607738 
C     2.2528318    2.2350430   -1.8555178 
C     3.3093132    3.2619415   -2.3033656 
C     2.7076194    4.3214733   -3.2386218 
H     1.8840051    5.5580422   -1.6566557 
H     1.0967876    5.8008804   -3.2282274 
H    -0.0473941    3.6152813   -3.0662946 
H    -0.3753591    4.5759943   -1.6179946 
H     2.6815403    1.5430882   -1.1077214 
H     1.9770307    1.6076208   -2.7205527 
H     3.7384603    3.7691851   -1.4176075 
H     4.1455011    2.7336754   -2.7953762 
H     2.3610686    3.8354433   -4.1728321 
H     3.4789888    5.0550106   -3.5327919 
H    -1.9188288    3.2413209   -1.0991289 
C    -1.5376615    2.8880904    2.3695161 
C    -1.4664213    3.5924730    1.0045892 
C    -1.7472363    2.6438471   -0.1859513 
C    -3.0068043    1.7880876    0.0598269 
C    -3.0304390    1.1070076    1.4326396 
C    -2.8538896    2.1253627    2.5644320 
H    -1.3880597    3.6320689    3.1694690 
H    -0.6988463    2.1660275    2.4426007 
H    -0.4916954    4.1020915    0.8951125 
H    -2.2360109    4.3881221    0.9709545 
H    -3.8849750    2.4579432   -0.0237152 
H    -3.1017529    1.0512947   -0.7552910 
H    -3.9649909    0.5293405    1.5500474 
H    -2.1959072    0.3806479    1.4904186 
H    -2.8610938    1.6181114    3.5462265 
H    -3.7051493    2.8343115    2.5660304 
H     1.7177538   -3.1506088    0.0299326 
C     3.2813222   -2.4255569   -2.1366462 
C     2.0719466   -1.6935580   -1.5307670 
C     1.1357459   -2.6799902   -0.7900453 
C     0.6733230   -3.7930707   -1.7580968 
C     1.8885580   -4.5311783   -2.3524550 
C     2.8394983   -3.5620933   -3.0724590 
H     3.8992987   -2.8437663   -1.3166306 
H     3.9198173   -1.7031854   -2.6768042 
H     1.5029545   -1.1849937   -2.3312990 
H     2.4075554   -0.9012757   -0.8354145 
H     0.0044871   -4.5103977   -1.2574442 
H     0.1002208   -3.3298970   -2.5797189 
H     2.4331800   -5.0479551   -1.5374001 
H     1.5386531   -5.3171455   -3.0456006 
H     2.3194598   -3.1275604   -3.9489056 
H     3.7194104   -4.1043371   -3.4619706 
H     0.1857552   -2.8479704    2.2397034 
C    -1.2888406   -5.1703139    2.5446985 
C    -0.9341531   -4.3878018    1.2650371 
C    -0.7038619   -2.8934086    1.5855739 
C    -1.8720145   -2.2616987    2.3762311 
C    -2.2319194   -3.0907217    3.6220250 
C    -2.5001059   -4.5605397    3.2656996 
H    -0.4149585   -5.1592288    3.2240711 
H    -1.4802534   -6.2267016    2.2839598 
H    -1.7466121   -4.5124996    0.5280889 
H    -0.0209894   -4.8177862    0.8196885 
H    -1.5923270   -1.2347109    2.6752232 
H    -2.7674117   -2.1732340    1.7314810 
H    -1.3915007   -3.0408246    4.3391379 
H    -3.1088296   -2.6407338    4.1215226 
H    -3.3922876   -4.6270520    2.6111571 
H    -2.7346667   -5.1381382    4.1775622 
