104
Energy =
C    -0.8994563    2.8340899    0.9634486 
C    -2.2382758    2.5041715    0.5543183 
C    -2.9717428    1.5064285    1.2124358 
H    -2.6625109    2.9911800   -0.3329699 
Pd   -0.8737956    0.7665429    0.2156434 
P    -1.1334814   -1.2441062   -1.0196152 
P     1.3041405    0.4104786    0.9422430 
H    -0.6645650    2.7395485    2.0327603 
H    -2.5551129    1.1350474    2.1615621 
C     1.5849786    5.5910802   -1.2284651 
C     0.5817248    4.8690981   -1.8963322 
C    -0.2331698    3.9778967   -1.1909769 
C    -0.0712895    3.7927596    0.2042712 
C     0.9333971    4.5376397    0.8619947 
C     1.7558798    5.4215849    0.1536100 
H     2.2259069    6.2845396   -1.7823312 
H     0.4396258    4.9975880   -2.9746984 
H    -0.9893909    3.3985393   -1.7336201 
H     1.0537636    4.4293824    1.9444097 
H     2.5288535    5.9872919    0.6839700 
C    -7.0276709    0.2573415    0.5787708 
C    -6.2895691   -0.2183141    1.6733840 
C    -4.9684041    0.2006763    1.8587905 
C    -4.3551344    1.1052701    0.9568329 
C    -5.1213697    1.5909553   -0.1309835 
C    -6.4389488    1.1658017   -0.3186262 
H    -8.0617735   -0.0691313    0.4287175 
H    -6.7454507   -0.9164559    2.3827133 
H    -4.3902091   -0.1777968    2.7094354 
H    -4.6861853    2.3074437   -0.8340888 
H    -7.0171805    1.5497609   -1.1653096 
Fe    3.3433112   -2.3973273    0.1613316 
C     1.7620882   -1.3505813    0.8865895 
C     1.3375924   -2.2753520   -0.1540673 
C     1.7095550   -3.5997608    0.2755675 
C     2.3546925   -3.5038531    1.5537989 
C     2.4011966   -2.1226693    1.9319662 
C     4.3172675   -2.3897876   -1.6502802 
C     4.6078864   -1.1918826   -0.9216243 
C     5.2018617   -1.5674023    0.3311019 
C     5.2774269   -3.0004877    0.3729324 
C     4.7252316   -3.5098121   -0.8505746 
C     1.2385122    0.7854248    2.7400912 
C     0.4803513   -0.0756665    3.5665243 
C     0.2780620    0.2351297    4.9163863 
C     0.8196879    1.4117185    5.4599034 
C     1.5659047    2.2738397    4.6444884 
C     1.7734125    1.9677823    3.2905149 
C     2.6704400    1.3879419    0.2245926 
C     2.4876768    1.9332638   -1.0597125 
C     3.5276550    2.6394571   -1.6801348 
C     4.7511822    2.8107627   -1.0164784 
C     4.9386592    2.2675954    0.2657676 
C     3.9056588    1.5533343    0.8855053 
C     0.6199257   -1.8939585   -1.4250964 
H     1.5653988   -4.5212437   -0.2902401 
H     2.7762260   -4.3360605    2.1203918 
H     2.8301836   -1.7157046    2.8486923 
H     3.8682742   -2.4376624   -2.6436681 
H     4.4082673   -0.1746362   -1.2596850 
H     5.5358232   -0.8862887    1.1143915 
H     5.6628436   -3.5997075    1.1999305 
H     4.6191774   -4.5631169   -1.1169310 
H     0.0515373   -0.9922601    3.1495650 
H     2.3521217    2.6525508    2.6649530 
H     1.5242359    1.8119336   -1.5648055 
H     4.0631125    1.1144839    1.8760135 
H     1.0936992   -0.9624447   -1.7863540 
C     0.7761001   -2.9611554   -2.5241916 
H     1.8388036   -3.2497563   -2.5732902 
H     0.1912163   -3.8699396   -2.3278584 
H     0.4870155   -2.5739314   -3.5121465 
H    -0.3041099   -0.4446691    5.5473249 
H     1.9937119    3.1915813    5.0613745 
H     3.3750481    3.0670894   -2.6757392 
H     5.8966801    2.3948017    0.7804496 
C    -1.8789077   -0.7557111   -2.7243912 
C    -2.1280650   -2.6251773   -0.1465705 
C    -2.3465958   -1.9425285   -3.5924162 
H    -2.6940421   -1.5535891   -4.5676308 
H    -1.5476489   -2.6713591   -3.7919571 
H    -3.1940768   -2.4759382   -3.1329935 
C    -1.8648408   -4.0452142   -0.6853875 
H    -2.5229963   -4.7530080   -0.1481517 
H    -2.0879206   -4.1358767   -1.7605317 
H    -0.8262584   -4.3633752   -0.5052750 
C    -3.0709627    0.1963587   -2.4775172 
H    -3.4592138    0.5452349   -3.4522418 
H    -3.9004607   -0.2802537   -1.9368971 
H    -2.7508537    1.0815639   -1.9006825 
C    -0.7889638    0.0620502   -3.4609167 
H    -1.2353352    0.5212468   -4.3615213 
H    -0.4059365    0.8798859   -2.8212818 
H     0.0633640   -0.5518268   -3.7930781 
C    -1.7169538   -2.5567155    1.3452002 
H    -2.2799793   -3.3238949    1.9082617 
H    -0.6412477   -2.7502887    1.4893564 
H    -1.9579231   -1.5678878    1.7742593 
C    -3.6329653   -2.3031513   -0.2492734 
H    -4.1869488   -2.9774777    0.4290528 
H    -3.8536197   -1.2703972    0.0607968 
H    -4.0279776   -2.4615550   -1.2654361 
H     0.6610605    1.6533409    6.5157779 
H     5.5620808    3.3676394   -1.4971190 
