134
Energy =
C     2.7572125    2.4140479    0.0356207 
C     2.1252066    2.7664089   -1.1680682 
C     0.8222046    3.3839567   -1.1673604 
H     2.5774842    2.4645689   -2.1212425 
Pd    0.6407633    1.3871413   -0.2697754 
P    -1.6824630    1.3271954    0.1051877 
P     1.2060743   -0.8861808   -0.0533312 
H     2.3315468    2.8254804    0.9650000 
H     0.6045841    4.0946936   -0.3582908 
C     6.5352335    0.4546540    0.5872808 
C     5.7025040    0.7278694    1.6837677 
C     4.4887245    1.3929827    1.4861620 
C     4.0627008    1.7670713    0.1880014 
C     4.9263954    1.5098740   -0.9035309 
C     6.1508780    0.8668936   -0.6999049 
H     7.4841454   -0.0708520    0.7317158 
H     5.9973381    0.4308888    2.6946902 
H     3.8614250    1.6358560    2.3498717 
H     4.6478886    1.8209235   -1.9138289 
H     6.8106615    0.6744630   -1.5511325 
C    -1.4550916    3.9838768   -4.7827763 
C    -0.5540494    2.9098813   -4.6914862 
C     0.1941132    2.7155093   -3.5264548 
C     0.0714543    3.5960366   -2.4238364 
C    -0.8236571    4.6847614   -2.5418512 
C    -1.5839167    4.8724714   -3.7037230 
H    -2.0457420    4.1323726   -5.6925141 
H    -0.4388613    2.2130804   -5.5278819 
H     0.8746708    1.8606284   -3.4725003 
H    -0.9129746    5.3972657   -1.7153395 
H    -2.2712620    5.7222266   -3.7701161 
Fe   -2.5056109   -3.9243021   -0.2616311 
C    -1.2351098   -2.3747718    0.0344192 
C    -2.5720424   -1.8712525   -0.2647230 
C    -3.4767803   -2.4332910    0.7087844 
H    -4.5524385   -2.2524977    0.7359244 
C    -2.7215133   -3.2314551    1.6290231 
H    -3.1234578   -3.7986107    2.4702945 
C    -1.3476126   -3.1994127    1.2211657 
H    -0.5434688   -3.7528030    1.7055285 
C    -1.5756536   -5.2788962   -1.4814936 
H    -0.5409914   -5.2371984   -1.8285644 
C    -2.7118216   -4.7111823   -2.1492552 
H    -2.6928044   -4.1776143   -3.1014237 
C    -3.8767632   -4.9834395   -1.3540981 
H    -4.9005258   -4.6808862   -1.5823788 
C    -3.4595729   -5.7275623   -0.2000968 
H    -4.1061608   -6.0732591    0.6084155 
C    -2.0374765   -5.9093949   -0.2778010 
H    -1.4143056   -6.4151365    0.4624485 
C    -2.9649006   -0.8877703   -1.3100672 
C    -2.5797217    0.4818330   -1.2678138 
C    -2.8438699    1.2962458   -2.3959206 
H    -2.4949044    2.3329263   -2.4176726 
C    -3.5501978    0.8112939   -3.5005644 
H    -3.7298525    1.4700921   -4.3559404 
C    -4.0330914   -0.5041479   -3.4892848 
H    -4.6192805   -0.8901123   -4.3294441 
C    -3.7295289   -1.3358015   -2.4070065 
H    -4.0552499   -2.3786363   -2.4005872 
C     2.6935809   -1.1205347   -1.1278925 
C     3.8384901   -1.8507354   -0.7623377 
H     3.9241099   -2.3085645    0.2261507 
C     4.9100604   -1.9683702   -1.6592354 
C     4.8612594   -1.3705405   -2.9279947 
H     5.7057099   -1.4556730   -3.6168698 
C     3.7302641   -0.6249088   -3.2802839 
C     2.6602283   -0.4964402   -2.3869049 
H     1.7909835    0.1031381   -2.6731073 
C     1.7545300   -1.5833150    1.5553150 
C     1.9049611   -2.9608905    1.7869178 
H     1.7079245   -3.6905924    0.9959383 
C     2.3088565   -3.4256756    3.0476394 
C     2.6138409   -2.5267942    4.0779492 
H     2.9271348   -2.8960038    5.0577791 
C     2.5078085   -1.1495190    3.8320367 
C     2.0672299   -0.6844944    2.5876079 
H     1.9581043    0.3882096    2.4173447 
C     0.0284604   -2.1953260   -0.7773747 
H     0.6006554   -3.1367569   -0.6961941 
C    -0.2142998   -1.9132501   -2.2730742 
H    -1.0423295   -2.5527573   -2.6151278 
H    -0.5026629   -0.8649701   -2.4601631 
H     0.6781695   -2.1478274   -2.8732372 
C     2.3598448   -4.9231052    3.2645718 
F     2.8618679   -5.2531996    4.4677434 
F     1.1077319   -5.4542232    3.1763869 
F     3.1069688   -5.5264199    2.3109112 
C     2.9084557   -0.1489461    4.8940071 
F     2.2338583    1.0229856    4.7463965 
F     2.6775736   -0.6084986    6.1376662 
F     4.2311580    0.1500767    4.8063654 
C     6.1487250   -2.7432191   -1.2570952 
F     7.2743462   -2.1154980   -1.6797616 
F     6.2372354   -2.8794337    0.0871211 
F     6.1540761   -3.9825748   -1.7949611 
C     3.6648667    0.1504452   -4.5753439 
F     2.4442858    0.0414479   -5.1571362 
F     3.8556084    1.4851010   -4.3362278 
F     4.5938524   -0.2374930   -5.4639649 
H    -2.0405946    3.4902437   -0.7883978 
C    -2.3571715    5.3728721    1.1354868 
C    -1.9362034    3.9018138    1.3131339 
C    -2.4513920    3.0436236    0.1359857 
C    -3.9921354    3.1387108    0.0392692 
C    -4.4021946    4.6097566   -0.1674613 
C    -3.8800153    5.5052265    0.9683733 
H    -1.8510563    5.7926835    0.2444332 
H    -2.0097011    5.9645767    2.0012206 
H    -2.3671696    3.5243060    2.2584417 
H    -0.8373866    3.8183140    1.4087815 
H    -4.3771535    2.5165591   -0.7853027 
H    -4.4522350    2.7592365    0.9677175 
H    -3.9979047    4.9635926   -1.1368635 
H    -5.5023047    4.6807444   -0.2387249 
H    -4.3738787    5.2115033    1.9156776 
H    -4.1531117    6.5597373    0.7855131 
H    -1.7535610   -0.5480038    1.5646780 
C    -3.5911810   -0.2616168    3.5778375 
C    -3.4538071    0.5722805    2.2877480 
C    -2.0059007    0.5081427    1.7601499 
C    -1.0156036    1.0004360    2.8415401 
C    -1.1332707    0.1208806    4.0971413 
C    -2.5690409    0.1565117    4.6482132 
H    -3.4413796   -1.3281286    3.3298001 
H    -4.6201648   -0.1656000    3.9685785 
H    -3.7138448    1.6228105    2.5128395 
H    -4.1647834    0.2199655    1.5202860 
H     0.0131370    0.9871417    2.4404422 
H    -1.2301159    2.0471680    3.1158500 
H    -0.8567322   -0.9204133    3.8370481 
H    -0.4129024    0.4638250    4.8603747 
H    -2.7955711    1.1850365    4.9922515 
H    -2.6576782   -0.4977934    5.5337884 
