132
Energy =
C     1.2077484   -0.5511571   -3.3975403 
C     1.0690687    0.8372586   -3.1081180 
C     1.8321682    1.4542486   -2.0893042 
H     0.2693248    1.4052528   -3.6007120 
Pd    0.5380515   -0.2487878   -1.2718470 
P     0.2327983    0.7952143    0.8158345 
P    -0.4771467   -2.2471837   -0.5802878 
H     2.1873851   -1.0053779   -3.1865391 
H     2.7618426    0.9504364   -1.7832299 
C    -1.0722925   -2.5628437   -6.4491784 
C    -1.6665721   -1.5365423   -5.6943426 
C    -0.9328300   -0.8736671   -4.7060024 
C     0.4112389   -1.2258479   -4.4427434 
C     0.9982970   -2.2518210   -5.2152323 
C     0.2649696   -2.9115025   -6.2108027 
H    -1.6489616   -3.0839956   -7.2200234 
H    -2.7108008   -1.2594428   -5.8735337 
H    -1.4159639   -0.0960037   -4.1049544 
H     2.0418257   -2.5314899   -5.0322477 
H     0.7392080   -3.7029163   -6.8003880 
C     1.6834001    5.5894568   -0.9133889 
C     2.7894120    4.7894476   -0.5928623 
C     2.8159311    3.4423439   -0.9736787 
C     1.7468418    2.8716865   -1.7009912 
C     0.6464839    3.6974162   -2.0325041 
C     0.6119335    5.0364014   -1.6357255 
H     1.6576346    6.6414128   -0.6101888 
H     3.6327401    5.2118391   -0.0372945 
H     3.6737593    2.8171009   -0.7026982 
H    -0.1964127    3.2874760   -2.5958615 
H    -0.2547901    5.6543062   -1.8919478 
Fe   -0.0141392   -0.9274699    3.9380313 
C    -0.5515930   -0.2265489    2.1141050 
C    -0.5469539   -1.6834045    2.1378924 
C    -1.4818899   -2.0972536    3.1538806 
C    -2.0472576   -0.9291348    3.7610594 
C    -1.4787973    0.2234102    3.1312013 
C     1.1122832   -2.1672670    5.0987949 
C     1.9544205   -1.3428052    4.2775824 
C     1.6747148    0.0307295    4.5948520 
C     0.6572722    0.0546010    5.6042381 
C     0.3072806   -1.3027331    5.9160922 
C    -0.9116329    2.2129230    0.6500848 
C    -1.7220519    2.2303995   -0.4996941 
C    -2.6634477    3.2456159   -0.7279371 
C    -2.7655077    4.2767384    0.2317380 
C    -1.9961162    4.2699156    1.4203990 
C    -1.0825076    3.2228886    1.6190784 
C     1.8617646    1.3319581    1.4632539 
C     2.1570603    2.6070445    1.9731714 
C     3.4310331    2.9044115    2.4901543 
C     4.4150388    1.8903315    2.4832723 
C     4.1642335    0.6136508    1.9244515 
C     2.8821271    0.3608951    1.4140702 
C     0.1964430   -2.5833079    1.1850771 
H    -1.6955113   -3.1262191    3.4465226 
H    -2.7595601   -0.9195452    4.5879933 
H    -1.7150403    1.2610544    3.3663275 
H     1.0773933   -3.2584440    5.0976950 
H     2.6764154   -1.6947057    3.5389172 
H     2.1384243    0.9018789    4.1307500 
H     0.2090064    0.9483094    6.0420157 
H    -0.4521446   -1.6220443    6.6321814 
H    -1.6062466    1.4294212   -1.2410394 
H    -0.5127980    3.2013294    2.5532680 
H     1.4116228    3.4040660    1.9416688 
H     2.6776315   -0.6184013    0.9627209 
H     1.2396637   -2.2288465    1.1125894 
H    -0.5304584   -4.6412424   -0.7347060 
H    -2.3226704   -1.1975560    0.4369677 
C    -4.5809940   -2.7393166    0.4310434 
C    -3.1310150   -3.1711288    0.1373661 
C    -2.3107162   -1.9640851   -0.3630399 
C    -2.9549060   -1.3145259   -1.6088715 
C    -4.3998826   -0.8871490   -1.3000849 
C    -5.2358458   -2.0745735   -0.7916756 
H    -4.5728301   -2.0260679    1.2787399 
H    -5.1714876   -3.6144272    0.7570023 
H    -3.1294317   -3.9710379   -0.6269391 
H    -2.6755620   -3.5934260    1.0488148 
H    -2.3502494   -0.4443376   -1.9227663 
H    -2.9477761   -2.0198439   -2.4590959 
H    -4.3814539   -0.0892492   -0.5312551 
H    -4.8621193   -0.4484382   -2.2032544 
H    -5.3342414   -2.8222640   -1.6035292 
H    -6.2596821   -1.7433391   -0.5425003 
C     1.5758577   -5.4603520   -2.3319206 
C     1.3008197   -4.0644260   -1.7450335 
C    -0.2066106   -3.8723537   -1.4627826 
C    -1.0342540   -4.0784555   -2.7490452 
C    -0.7525304   -5.4696931   -3.3495023 
C     0.7458985   -5.7013980   -3.6030844 
H     1.3243563   -6.2270206   -1.5723653 
H     2.6544070   -5.5698212   -2.5460535 
H     1.6209484   -3.2864080   -2.4627127 
H     1.8982342   -3.9107050   -0.8268707 
H    -2.1116699   -3.9873887   -2.5327008 
H    -0.7854431   -3.2958749   -3.4838302 
H    -1.1307138   -6.2461147   -2.6549623 
H    -1.3218878   -5.5803521   -4.2898072 
H     1.0882772   -5.0085245   -4.3940310 
H     0.9147159   -6.7254521   -3.9814171 
C     0.2240018   -4.0464880    1.6557656 
H     0.6052341   -4.0734784    2.6911752 
H    -0.7762448   -4.5095024    1.6515331 
H     0.8909476   -4.6642930    1.0349668 
C    -3.5311776    3.2463849   -1.9642538 
H    -4.4992871    3.7308380   -1.7591153 
H    -3.0502251    3.8035072   -2.7911811 
H    -3.7120459    2.2180528   -2.3192006 
C    -2.1791899    5.3664257    2.4426354 
H    -1.6686478    6.2945943    2.1238096 
H    -3.2471264    5.6118251    2.5633363 
H    -1.7605903    5.0746164    3.4194971 
O    -3.6927111    5.2795469    0.0557514 
C    -3.2512665    6.4059598   -0.7137249 
H    -4.0864631    7.1217586   -0.7249493 
H    -2.3637404    6.8815329   -0.2542544 
H    -3.0057393    6.1136128   -1.7527661 
C     3.7650838    4.2803064    3.0153399 
H     4.7641232    4.5946215    2.6697706 
H     3.0173734    5.0201181    2.6869003 
H     3.7892786    4.2938807    4.1208867 
C     5.2542328   -0.4307721    1.8817937 
H     5.3133735   -0.9829203    2.8389768 
H     5.0666099   -1.1689749    1.0845676 
H     6.2371102    0.0395367    1.7160641 
O     5.6768065    2.1865642    2.9473341 
C     5.9199744    1.8740901    4.3273361 
H     6.9574406    2.1749043    4.5350040 
H     5.2331526    2.4328009    4.9910546 
H     5.8037028    0.7911385    4.5217245 
