98
Energy =
C    -0.6667215   -3.0027764    0.4010580 
C    -1.3518193   -2.3187569    1.4341741 
C    -2.4168723   -1.4289559    1.1458742 
H    -0.9946608   -2.4049924    2.4673753 
Pd   -0.4586686   -0.7292155    0.1751675 
P    -1.0304897    1.5616104   -0.0046133 
P     1.5999658   -0.7868665   -0.9835065 
H    -1.2003698   -3.1135993   -0.5538394 
H    -2.9347823   -1.5672845    0.1847423 
C     2.5597304   -5.8037848    0.9215615 
C     1.8316546   -5.7629533   -0.2769315 
C     0.7743977   -4.8566649   -0.4251609 
C     0.4271175   -3.9643542    0.6156270 
C     1.1565022   -4.0349808    1.8259164 
C     2.2094539   -4.9426991    1.9756377 
H     3.3878945   -6.5097487    1.0399597 
H     2.0836597   -6.4433280   -1.0968637 
H     0.2019436   -4.8412168   -1.3590225 
H     0.9116710   -3.3607314    2.6522832 
H     2.7651052   -4.9773339    2.9183846 
C    -4.8195867    0.5183554    4.1428605 
C    -3.4983111    0.1469802    4.4447960 
C    -2.7020412   -0.4761426    3.4782208 
C    -3.2087389   -0.7439729    2.1847466 
C    -4.5449339   -0.3768668    1.9018732 
C    -5.3412386    0.2495272    2.8687721 
H    -5.4394887    1.0090828    4.8999075 
H    -3.0862886    0.3481720    5.4390713 
H    -1.6716661   -0.7492102    3.7281457 
H    -4.9662590   -0.5998325    0.9149214 
H    -6.3735248    0.5232292    2.6280930 
Fe    1.5512745    2.4365344   -1.9319793 
C     2.4640912    0.7960352   -1.2419213 
C     2.5266405    1.8529936   -0.2560206 
H     2.1163853    1.8004285    0.7527776 
C     3.2038316    2.9739859   -0.8353274 
H     3.3787839    3.9351152   -0.3489066 
C     3.5824468    2.6240293   -2.1722380 
H     4.0960542    3.2715651   -2.8850040 
C     3.1404478    1.2848477   -2.4293566 
C    -0.3963639    2.4222841   -1.4762268 
C    -0.1792339    1.7983196   -2.7632511 
H    -0.4297660    0.7668470   -3.0154168 
C     0.4421640    2.7557092   -3.6291163 
H     0.7600398    2.5753707   -4.6574031 
C     0.6031769    3.9790140   -2.8999209 
H     1.0657718    4.8935901   -3.2750815 
C     0.0863711    3.7863647   -1.5768945 
H     3.2774045    0.7469294   -3.3683519 
H     0.0795218    4.5374760   -0.7857113 
C    -0.4972422    2.6818236    1.4152236 
C    -1.7105023    3.6211408    1.6152862 
C    -2.9883539    2.7892166    1.4149804 
C    -2.8683019    2.0215361    0.0744456 
H     0.3855825    3.2374731    1.0546521 
H    -1.6851953    4.0915961    2.6141859 
H    -1.6770032    4.4425432    0.8762008 
H    -3.0972019    2.0675034    2.2435774 
H    -3.8929879    3.4213369    1.4276734 
H    -3.4304858    1.0760539    0.1306382 
C     1.5167991   -1.5198614   -2.7240051 
C     2.6630654   -2.5686871   -2.7801521 
C     3.7366325   -2.2180543   -1.7377032 
C     3.0208878   -1.8858482   -0.4114077 
H     1.7460351   -0.6696569   -3.3907660 
H     2.2427273   -3.5620215   -2.5381324 
H     3.0875680   -2.6332283   -3.7967769 
H     4.4465326   -3.0522999   -1.5929956 
H     4.3293308   -1.3430501   -2.0662217 
H     2.5510422   -2.8037037   -0.0174962 
C     3.9216279   -1.2626387    0.6654056 
H     4.7653150   -1.9579562    0.8369235 
H     4.3684790   -0.3315298    0.2688754 
C     3.2152239   -0.9834768    1.9975571 
H     3.8878966   -0.4697891    2.7050274 
H     2.3229106   -0.3453467    1.8542285 
H     2.8747461   -1.9203282    2.4684848 
C     0.1372054   -2.0740857   -3.1261110 
H    -0.0943907   -2.9512229   -2.4962076 
H    -0.6456969   -1.3246697   -2.9003017 
C     0.0640660   -2.4686889   -4.6073819 
H    -0.9407073   -2.8439365   -4.8664824 
H     0.2811587   -1.6024435   -5.2584789 
H     0.7918370   -3.2623106   -4.8505071 
C    -0.0999820    1.8892132    2.6788562 
H     0.5252421    1.0246168    2.3819337 
H    -1.0077921    1.4588311    3.1366308 
C     0.6566990    2.7404634    3.7062712 
H     0.9166964    2.1430227    4.5969167 
H     1.5958951    3.1360911    3.2779735 
H     0.0556762    3.6018498    4.0469012 
C    -3.3638265    2.8043404   -1.1608271 
H    -3.0348689    2.2841469   -2.0789324 
H    -2.8840348    3.8000955   -1.1921616 
C    -4.8920773    2.9525598   -1.1887206 
H    -5.2694983    3.5032190   -0.3093081 
H    -5.2126943    3.5041868   -2.0888336 
H    -5.3857106    1.9638455   -1.2028197 
