142
Energy =
C     0.8615032    2.9398044    0.3666532 
C     1.1991051    2.4552258    1.6610224 
C     2.3520348    1.6661379    1.8738811 
H     0.4919209    2.5980957    2.4867788 
Pd    0.8689515    0.6730058    0.3842322 
P     1.3007980   -1.4850052    1.1788694 
P    -0.3280874    0.4135589   -1.6305671 
H     1.6802708    3.0381036   -0.3605374 
H     3.1337754    1.6973213    1.0996743 
C    -2.5475828    5.3920838   -0.5618918 
C    -1.4617154    5.3047761   -1.4449520 
C    -0.3583163    4.5049322   -1.1256330 
C    -0.3215278    3.7684323    0.0797806 
C    -1.4185087    3.8771888    0.9671822 
C    -2.5163158    4.6807698    0.6494916 
H    -3.4107347    6.0187770   -0.8093649 
H    -1.4710639    5.8662013   -2.3849694 
H     0.4924774    4.4469240   -1.8121651 
H    -1.4251786    3.3192215    1.9091716 
H    -3.3559644    4.7496036    1.3485881 
C     3.7207388    0.0587596    5.6208824 
C     4.4744699   -0.1101288    4.4501816 
C     4.0212019    0.4346602    3.2430917 
C     2.7916189    1.1317348    3.1714197 
C     2.0475570    1.3007929    4.3641339 
C     2.5141096    0.7783124    5.5733891 
H     4.0654544   -0.3691998    6.5669582 
H     5.4153183   -0.6685810    4.4748519 
H     4.6256765    0.3255847    2.3370932 
H     1.0969938    1.8424056    4.3506465 
H     1.9276912    0.9163857    6.4867131 
Fe   -2.5414103   -4.0082897    0.0151344 
C    -1.0230987   -2.7073340    0.3282806 
C    -1.6842560   -2.3956261   -0.9309547 
C    -3.0770580   -2.1591365   -0.6403730 
H    -3.8347358   -1.9068728   -1.3827709 
C    -3.2768022   -2.2696828    0.7723731 
H    -4.2254037   -2.1498231    1.2980493 
C    -2.0225592   -2.6161452    1.3720523 
H    -1.8592178   -2.8268618    2.4299412 
C    -1.9253817   -5.8737484    0.5770521 
H    -1.0160306   -6.1124984    1.1324258 
C    -2.0478904   -5.8035812   -0.8512242 
H    -1.2510820   -6.0031702   -1.5701894 
C    -3.4044008   -5.4475428   -1.1644511 
H    -3.8241343   -5.3091920   -2.1626757 
C    -4.1196222   -5.3042630    0.0706390 
H    -5.1679600   -5.0191988    0.1754563 
C    -3.2068533   -5.5688116    1.1465168 
H    -3.4405492   -5.5185901    2.2117605 
C    -1.0510432   -2.2789531   -2.2752318 
C    -0.3090843   -1.1263858   -2.6632673 
C     0.3510218   -1.1140005   -3.9099406 
H     0.9259814   -0.2341996   -4.2113537 
C     0.2573007   -2.2010417   -4.7892830 
H     0.7813937   -2.1682198   -5.7498449 
C    -0.5327231   -3.3036527   -4.4442074 
H    -0.6431916   -4.1459349   -5.1350038 
C    -1.1750304   -3.3321874   -3.2000354 
H    -1.7784891   -4.1929264   -2.9076386 
C     0.3843356    1.6688058   -2.7732869 
C    -0.4013148    2.4760417   -3.6116050 
H    -1.4911586    2.3832497   -3.6011971 
C     0.1868877    3.4346235   -4.4573606 
C     1.5923537    3.5782039   -4.4330343 
C     2.4147323    2.7616691   -3.6173730 
C     1.7880350    1.8140777   -2.7944119 
H     2.4139513    1.1705493   -2.1625198 
C    -2.1145246    0.7605516   -1.4747845 
C    -2.6368477    1.1170372   -0.2208566 
H    -1.9626769    1.1927434    0.6389609 
C    -4.0076793    1.3554734   -0.0467627 
C    -4.8520015    1.2323588   -1.1735349 
C    -4.3613814    0.8402947   -2.4432834 
C    -2.9834725    0.6022161   -2.5723365 
H    -2.5930035    0.2525087   -3.5351503 
C     3.0981066   -1.8557645    1.0729994 
C     3.7911967   -1.0718599    0.1354564 
H     3.2341360   -0.3413406   -0.4626512 
C     5.1794660   -1.1802828   -0.0123028 
C     5.9037596   -2.0837391    0.7735383 
H     6.9899982   -2.1588326    0.6774038 
C     5.2104973   -2.8971180    1.6854617 
C     3.8181461   -2.8055852    1.8226263 
H     3.3195055   -3.4813831    2.5210114 
C     0.7573192   -1.4220668    2.9397119 
C    -0.3969368   -0.6459070    3.1442986 
H    -0.8543931   -0.1266848    2.2944315 
C    -0.9665258   -0.5275022    4.4184318 
C    -0.3860473   -1.1699117    5.5159729 
H    -0.8169827   -1.0601284    6.5146513 
C     0.7779844   -1.9303517    5.3172903 
C     1.3441429   -2.0670012    4.0426918 
H     2.2630608   -2.6449501    3.9463149 
C     0.4258214   -3.0515657    0.5597846 
H     0.4739575   -3.7434826    1.4204855 
C     1.1801921   -3.6700992   -0.6284470 
H     0.5612270   -4.4713685   -1.0628032 
H     1.3857556   -2.9356629   -1.4236989 
H     2.1392661   -4.1013294   -0.2991881 
C    -2.2029941    0.3279015    4.5514912 
F    -2.6182925    0.4561321    5.8226906 
F    -1.9677372    1.5870040    4.0642445 
F    -3.2294029   -0.1764889    3.8213580 
C     1.4270019   -2.5915592    6.5160237 
F     2.6480977   -3.0919468    6.2174554 
F     1.5849324   -1.7050332    7.5314611 
F     0.6696879   -3.6063232    6.9880537 
C     5.8553799   -0.2288227   -0.9730141 
F     7.1676988   -0.4745220   -1.1153932 
F     5.2768057   -0.2794596   -2.2013270 
F     5.7144111    1.0564427   -0.5369481 
C     5.9862608   -3.8210190    2.6029037 
F     5.2438078   -4.8867639    2.9787541 
F     7.1136534   -4.2755779    2.0208669 
F     6.3496575   -3.1645209    3.7363099 
C    -0.6555188    4.2996568   -5.3647593 
H    -0.8884869    5.2712421   -4.8891045 
H    -0.1186995    4.5146944   -6.3030165 
H    -1.6147589    3.8104437   -5.5994274 
C     3.9165220    2.9180747   -3.6565842 
H     4.4195782    2.0793132   -3.1508844 
H     4.2708948    2.9790880   -4.6991761 
H     4.2332437    3.8529429   -3.1579430 
C    -4.5946267    1.6977692    1.3006737 
H    -5.1936149    2.6234145    1.2531548 
H    -5.2747810    0.8977610    1.6430157 
H    -3.8069242    1.8285915    2.0569513 
C    -5.3036072    0.6433604   -3.6081097 
H    -4.9011655   -0.0965912   -4.3194358 
H    -6.2907294    0.3028557   -3.2546244 
H    -5.4578827    1.5859897   -4.1663561 
O     2.1982180    4.4829421   -5.2755220 
O    -6.2037693    1.4180212   -0.9840935 
C     2.3244114    5.8194205   -4.7705119 
H     2.8336944    6.4006474   -5.5533615 
H     1.3345672    6.2695315   -4.5646867 
H     2.9284340    5.8420078   -3.8432877 
C    -6.7202700    2.6966349   -1.3807309 
H    -6.6230082    2.8563466   -2.4709378 
H    -7.7854845    2.6990425   -1.1058770 
H    -6.1984543    3.5168550   -0.8510723 
