134
Energy =
C    -1.5562560    0.7525973   -3.0025814 
C    -0.3560242    0.1199772   -3.3881883 
C    -0.1187131   -1.2634282   -3.1118739 
H     0.4647673    0.7203063   -3.8021852 
Pd   -0.3789485   -0.1838715   -1.2009356 
P     0.4977890   -1.9166542    0.1407935 
P    -0.9328375    1.5165588    0.3489301 
H    -2.4011778    0.1013726   -2.7322034 
H    -0.9898284   -1.9344640   -3.0943213 
C    -2.7410405    4.8176090   -3.7513050 
C    -3.6012100    3.9268801   -3.0933401 
C    -3.1999513    2.6074484   -2.8583036 
C    -1.9237657    2.1515191   -3.2641027 
C    -1.0745492    3.0582679   -3.9434445 
C    -1.4802258    4.3731063   -4.1839606 
H    -3.0540062    5.8495239   -3.9409173 
H    -4.5923647    4.2564255   -2.7656319 
H    -3.8790342    1.9173128   -2.3476928 
H    -0.0914677    2.7332177   -4.2978859 
H    -0.8140397    5.0571945   -4.7197277 
C     3.6285528   -3.1342223   -4.1120992 
C     3.6167264   -1.8644261   -3.5098947 
C     2.4012664   -1.2533006   -3.1848008 
C     1.1734301   -1.9024328   -3.4473785 
C     1.1990403   -3.1794116   -4.0436872 
C     2.4160397   -3.7867218   -4.3781154 
H     4.5794391   -3.6119855   -4.3702877 
H     4.5602342   -1.3508577   -3.2943749 
H     2.3944568   -0.2742239   -2.6913335 
H     0.2568917   -3.7006498   -4.2409863 
H     2.4165111   -4.7800522   -4.8384322 
Fe    3.9533061    1.0558264    1.7269110 
C     2.5111757   -0.0307572    0.7546193 
C     1.9098409    1.0402718    1.5312673 
C     2.4918984    2.2819736    1.0758538 
H     2.2525409    3.2681540    1.4746656 
C     3.4125598    1.9981326    0.0172480 
H     4.0218566    2.7307334   -0.5149926 
C     3.4272168    0.5795267   -0.1780887 
H     4.0556670    0.0307438   -0.8824446 
C     4.6775006    0.2289143    3.4671813 
H     4.1940835   -0.5090949    4.1096641 
C     4.5650303    1.6555851    3.5864810 
H     3.9594148    2.1964838    4.3160028 
C     5.3780998    2.2490024    2.5649490 
H     5.4888127    3.3181603    2.3741485 
C     5.9869882    1.1902290    1.8099116 
H     6.6454930    1.3144211    0.9480830 
C     5.5528726   -0.0587546    2.3665251 
H     5.8422722   -1.0500769    2.0124358 
C     0.7997117    0.9661135    2.5231763 
C    -0.5346970    1.2820106    2.1392126 
C    -1.5512753    1.3298479    3.1120941 
H    -2.5734788    1.5825488    2.8134605 
C    -1.2742455    1.0318101    4.4529913 
H    -2.0768605    1.0726449    5.1964768 
C     0.0262575    0.6760862    4.8306288 
H     0.2514387    0.4288481    5.8731448 
C     1.0493658    0.6590222    3.8728189 
H     2.0755383    0.4195545    4.1600877 
C    -0.5549368   -2.4924845    1.5493510 
C    -1.6904439   -1.7663330    1.9357810 
H    -1.9222534   -0.8290638    1.4317887 
C    -2.5543764   -2.2338302    2.9429041 
C    -2.2430245   -3.4516174    3.5707639 
H    -2.9075733   -3.8326096    4.3563078 
C    -1.1164107   -4.2129269    3.2009851 
C    -0.2884254   -3.7296100    2.1743199 
H     0.5525575   -4.3451702    1.8400251 
C     0.6935722   -3.5372715   -0.7236019 
C    -0.4989113   -4.1352746   -1.1886163 
H    -1.4554355   -3.6174804   -1.0423254 
C    -0.4840499   -5.3897993   -1.8124257 
C     0.7565736   -6.0480185   -1.9611123 
H     0.7828152   -7.0321373   -2.4446213 
C     1.9562865   -5.4770216   -1.5138771 
C     1.9111798   -4.2081503   -0.8951528 
H     2.8528595   -3.7635496   -0.5588293 
C     2.2362518   -1.5167391    0.7828103 
H     2.8668862   -1.9356250   -0.0207749 
C     2.5795198   -2.2352711    2.0962459 
H     3.6261595   -2.0144020    2.3522857 
H     1.9342294   -1.8981445    2.9226655 
H     2.4711625   -3.3270912    1.9943655 
C    -1.7567953   -6.0290886   -2.3215251 
C     3.2827822   -6.1799932   -1.6927871 
C    -3.7865480   -1.4481262    3.3349071 
C    -0.8095320   -5.5230435    3.8928732 
C    -5.5526253    2.0058469    0.1576477 
C    -4.7746371    3.1542368    0.3831120 
C    -3.3732006    3.0164750    0.4598585 
C    -2.7634671    1.7614435    0.3038517 
C    -3.5703142    0.6313798    0.0486105 
C    -4.9698578    0.7324810   -0.0105295 
H    -6.6431718    2.1048710    0.0958828 
H    -2.7615483    3.9108541    0.6080878 
H    -3.0992133   -0.3427404   -0.1288430 
C     1.1091730    5.5596499   -0.5810194 
C     1.2425143    4.4952749   -1.4896551 
C     0.5792512    3.2886501   -1.2027469 
C    -0.1876099    3.1492395   -0.0374807 
C    -0.2864171    4.2225668    0.8712465 
C     0.3508934    5.4462539    0.6028465 
H     1.6296138    6.5031588   -0.7874667 
H     0.7078328    2.4237253   -1.8615998 
H    -0.8248897    4.0930498    1.8172291 
H    -3.9922230   -0.6377999    2.6163929 
H    -4.6757015   -2.1007934    3.3875502 
H    -3.6583777   -0.9891800    4.3323447 
H    -1.7208608   -6.1328052    4.0193328 
H    -0.0719799   -6.1159440    3.3272702 
H    -0.3944996   -5.3436583    4.9023668 
H    -2.6424501   -5.4191048   -2.0789707 
H    -1.7214204   -6.1600015   -3.4188621 
H    -1.9003197   -7.0321005   -1.8815589 
H     3.7731717   -6.3584115   -0.7186746 
H     3.1624909   -7.1522540   -2.1972705 
H     3.9707438   -5.5611008   -2.2970096 
C    -5.4070350    4.5207762    0.5269553 
H    -5.2139984    4.9417750    1.5303503 
H    -4.9821460    5.2281185   -0.2080872 
H    -6.4981721    4.4822612    0.3781962 
C    -5.8280144   -0.4924610   -0.2344672 
H    -5.2382575   -1.3297350   -0.6434339 
H    -6.2715520   -0.8333477    0.7199981 
H    -6.6620602   -0.2816754   -0.9253536 
C     2.0778802    4.6366204   -2.7418324 
H     2.4571781    3.6583407   -3.0830868 
H     1.4774616    5.0664369   -3.5653478 
H     2.9395952    5.3059933   -2.5807425 
C     0.2339993    6.6133562    1.5583466 
H    -0.1633870    6.2972713    2.5368935 
H     1.2122277    7.0980950    1.7213903 
H    -0.4468281    7.3842081    1.1513021 
