110
Energy =
C    -0.6433316    2.5273545   -1.6831020 
C     0.3116286    2.8989552   -0.7200468 
C     1.6332564    2.3690596   -0.7480209 
H     0.0187903    3.5638913    0.1016576 
Pd    0.1677202    0.7046655   -0.3532809 
P     1.7290354   -0.8474711    0.5204913 
P    -1.8564656   -0.5432788   -0.2506426 
H    -0.2721828    2.0123788   -2.5819665 
H     1.9953700    2.0270306   -1.7270426 
C    -4.5759088    4.2010740   -2.1824483 
C    -3.9847096    3.4365054   -3.1995462 
C    -2.7036207    2.9025281   -3.0190688 
C    -1.9851201    3.1122227   -1.8167066 
C    -2.5877285    3.9083170   -0.8124252 
C    -3.8672777    4.4422235   -0.9930363 
H    -5.5783522    4.6190207   -2.3191692 
H    -4.5205302    3.2591837   -4.1375372 
H    -2.2429303    2.3164560   -3.8223333 
H    -2.0520937    4.1167976    0.1189800 
H    -4.3152667    5.0528474   -0.2024338 
C     4.7492260    3.6179317    1.9450440 
C     3.4106631    3.6294280    2.3734865 
C     2.3893814    3.2210881    1.5101488 
C     2.6835717    2.8028759    0.1908626 
C     4.0331812    2.8105376   -0.2313813 
C     5.0559852    3.2091484    0.6385676 
H     5.5471830    3.9293966    2.6266173 
H     3.1657082    3.9461152    3.3925447 
H     1.3566928    3.1893002    1.8741999 
H     4.2784558    2.5073370   -1.2550919 
H     6.0950282    3.2058344    0.2936292 
Fe   -0.5332086   -3.2620787    1.1845402 
C    -1.7592285   -2.3623790   -0.1267882 
C    -2.5013146   -3.2557640    0.7454514 
H    -3.2973798   -2.9783596    1.4366846 
C    -1.9800292   -4.5810873    0.5819981 
H    -2.3146364   -5.4665870    1.1252843 
C    -0.9215486   -4.5315596   -0.3818786 
H    -0.3080884   -5.3732663   -0.7076769 
C    -0.7849349   -3.1763980   -0.8224942 
C     1.0270690   -2.0941275    1.6548598 
C     1.3910056   -3.4944325    1.7721707 
H     2.1788872   -4.0102490    1.2218083 
C     0.5193971   -4.1046625    2.7316211 
H     0.5239641   -5.1587611    3.0146659 
C    -0.3801841   -3.1031306    3.2227500 
H    -1.1836138   -3.2602202    3.9445115 
C    -0.0703012   -1.8675193    2.5694376 
H    -0.0628645   -2.8127984   -1.5522207 
H    -0.5843898   -0.9178249    2.7144756 
C     3.3433072   -0.2753448    1.3552655 
C     4.4525358   -0.8145844    0.4137897 
C     3.9996468   -2.1261756   -0.2505533 
C     2.5512690   -1.9570891   -0.7704148 
H     3.3448646    0.8239610    1.3063998 
H     4.6522346   -0.0529073   -0.3577494 
H     5.3995935   -0.9522782    0.9599623 
H     4.6829487   -2.4250163   -1.0659998 
H     4.0284275   -2.9409230    0.4954035 
H     2.0001643   -2.9074174   -0.6772706 
C    -3.1067927   -0.1926022   -1.6344375 
C    -4.4632263    0.0759017   -0.9186156 
C    -4.4159202   -0.4790481    0.5121763 
C    -3.0537994   -0.0974069    1.1377161 
H    -2.7664028    0.7566482   -2.0724486 
H    -4.6347380    1.1670130   -0.8943691 
H    -5.3057141   -0.3616821   -1.4776789 
H    -5.2571205   -0.1128494    1.1246295 
H    -4.5110794   -1.5773180    0.4781775 
H    -2.8283491   -0.7338056    2.0127315 
C    -2.9064571    1.3987770    1.5383424 
H    -2.8020252    1.9801907    0.6035556 
C    -3.0696990   -1.2393860   -2.7776631 
H    -3.1898387   -2.2509649   -2.3434491 
C     3.4287024   -0.6530816    2.8612465 
H     3.1695051   -1.7215039    2.9841492 
C     2.3842724   -1.5021595   -2.2492735 
H     1.3455560   -1.1214080   -2.3401361 
C    -1.7086479   -1.1681824   -3.4972537 
H    -1.5860594   -2.0000516   -4.2114792 
H    -1.6219328   -0.2208702   -4.0611917 
H    -0.8623831   -1.1989783   -2.7882522 
C    -4.2020928   -1.0181188   -3.7988694 
H    -4.0899515   -1.7148557   -4.6476576 
H    -5.2000967   -1.1880324   -3.3623367 
H    -4.1757938    0.0123379   -4.1994570 
C    -4.1426409    1.9417276    2.2771272 
H    -3.9602524    2.9803811    2.6039109 
H    -5.0400360    1.9533351    1.6364367 
H    -4.3677253    1.3409694    3.1775444 
C    -1.6415206    1.6376461    2.3798401 
H    -1.5036375    2.7142399    2.5838343 
H    -1.7058965    1.1189276    3.3542605 
H    -0.7315769    1.2783958    1.8546613 
C     2.4285728    0.1966897    3.6689371 
H     2.3164836   -0.1905405    4.6958694 
H     2.7825298    1.2403643    3.7292578 
H     1.4280146    0.2186623    3.2042860 
C     4.8465455   -0.4433971    3.4279727 
H     4.8403925   -0.5992299    4.5208484 
H     5.5810585   -1.1465905    3.0009376 
H     5.1986014    0.5866472    3.2335241 
C     2.5276101   -2.7116680   -3.1917178 
H     2.3736971   -2.4112151   -4.2426906 
H     3.5362251   -3.1569559   -3.1154750 
H     1.7931076   -3.5016821   -2.9523318 
C     3.3237155   -0.3679639   -2.6839082 
H     3.0659434   -0.0253880   -3.7009877 
H     3.2549009    0.4970648   -2.0060344 
H     4.3770208   -0.6987569   -2.7032413 
