112
Energy =
C     2.7070973    1.3794584   -1.5529661 
C     1.6846483    1.4007677   -2.5234591 
C     0.5191538    2.2134866   -2.3953152 
H     1.7230512    0.6797415   -3.3504455 
Pd    0.6277574    0.7519606   -0.6988694 
P    -1.5965664    0.6991884    0.0527127 
P     1.2859820   -0.7605514    0.9618417 
H     2.7349493    2.2123859   -0.8337577 
H     0.6223649    3.1537329   -1.8336116 
C     6.3975538   -0.8119181   -1.8733562 
C     6.0390376   -0.1916219   -0.6667914 
C     4.8378409    0.5172005   -0.5726001 
C     3.9568145    0.6093963   -1.6752418 
C     4.3353473   -0.0187966   -2.8855575 
C     5.5437553   -0.7158138   -2.9834354 
H     7.3413746   -1.3611106   -1.9509483 
H     6.6979018   -0.2610808    0.2043658 
H     4.5691754    0.9944905    0.3747802 
H     3.6952259    0.0602520   -3.7699148 
H     5.8251587   -1.1811323   -3.9338105 
C    -2.3376593    2.2735440   -5.6223876 
C    -1.8382806    1.0469592   -5.1536460 
C    -0.9322655    1.0175585   -4.0870977 
C    -0.5077588    2.2136458   -3.4635358 
C    -1.0344912    3.4373051   -3.9321310 
C    -1.9332892    3.4674900   -5.0062409 
H    -3.0448451    2.2969905   -6.4575288 
H    -2.1585502    0.1099404   -5.6212150 
H    -0.5581185    0.0563832   -3.7161024 
H    -0.7163925    4.3752868   -3.4633126 
H    -2.3214492    4.4274045   -5.3618467 
Fe   -0.4931034   -3.8307944    0.8215380 
C     0.0061548   -1.9540409    1.4518067 
C    -1.3888319   -1.9810075    1.0310998 
C    -2.0508900   -2.9749938    1.8340599 
C    -1.1062161   -3.5588351    2.7377630 
C     0.1686427   -2.9530472    2.4940625 
C     0.2888229   -4.3492688   -1.0047320 
C     1.0667129   -4.9104358    0.0657487 
C     0.2012610   -5.7472918    0.8436407 
C    -1.1095943   -5.7002371    0.2604247 
C    -1.0512672   -4.8446765   -0.8869782 
C     1.7805884    0.1310407    2.5056504 
C     2.4997506    1.3352926    2.3457760 
C     2.9374105    2.0654846    3.4573433 
C     2.6542757    1.6064726    4.7529189 
C     1.9280327    0.4197100    4.9243250 
C     1.4912962   -0.3141988    3.8106497 
C     2.7376405   -1.8172277    0.5789810 
C     2.9338225   -2.2207671   -0.7555856 
C     3.9755372   -3.0968941   -1.0809497 
C     4.8357625   -3.5669641   -0.0759881 
C     4.6580332   -3.1498396    1.2518409 
C     3.6162900   -2.2703367    1.5815162 
C    -2.1238390   -1.1053015    0.0306250 
H    -3.1058912   -3.2448620    1.7489939 
H    -1.3086554   -4.3612807    3.4494775 
H     1.1083327   -3.2134288    2.9849900 
H     0.6569188   -3.6729337   -1.7763483 
H     2.1218485   -4.7188371    0.2644127 
H     0.4813064   -6.2952976    1.7453859 
H    -1.9979969   -6.2113993    0.6359138 
H    -1.8844022   -4.6204598   -1.5534698 
H     2.6971495    1.7138788    1.3385386 
H     0.9095334   -1.2252408    3.9680866 
H     2.2687933   -1.8372934   -1.5374243 
H     3.4913428   -1.9356826    2.6168817 
H     3.4916160    2.9982295    3.3108279 
H     1.6908806    0.0615419    5.9313698 
H     4.1244196   -3.4032396   -2.1206059 
H     5.3359709   -3.5053947    2.0347869 
H     2.9895255    2.1774315    5.6246848 
H     5.6530148   -4.2493226   -0.3309758 
H    -3.1854886   -1.1139916    0.3332692 
C    -2.0268409   -1.6049852   -1.4260384 
H    -2.5613374   -0.9425207   -2.1275402 
H    -0.9704694   -1.6696061   -1.7381376 
H    -2.4705775   -2.6085739   -1.4958362 
H    -2.5907369    1.2451758   -2.0539967 
H    -2.9571759    1.8838860    1.6212377 
C    -3.9295495    3.7889296   -1.7158153 
C    -2.7801887    3.0835168   -0.9327539 
C    -2.8795040    1.5421890   -1.0298069 
C    -4.3399341    1.1076908   -0.7743384 
C    -5.2784781    1.6453834   -1.8957470 
C    -4.6616555    2.8302716   -2.6639987 
H    -3.5207502    4.6449982   -2.2798420 
H    -4.6577929    4.2079656   -0.9969081 
H    -2.8346680    3.3947628    0.1246086 
H    -1.7957280    3.4077247   -1.3064612 
H    -4.4390022    0.0112524   -0.7166726 
H    -4.6568975    1.5016263    0.2098121 
H    -5.5123852    0.8319535   -2.6053845 
H    -6.2381063    1.9490130   -1.4405542 
H    -5.4475779    3.3684818   -3.2221939 
H    -3.9500386    2.4555305   -3.4203241 
C    -1.3248843    3.3228619    3.3375212 
C    -0.9502146    2.5817771    2.0431115 
C    -1.9497974    1.4389510    1.7461515 
C    -2.0344528    0.4559134    2.9307006 
C    -2.4050275    1.2065923    4.2244774 
C    -1.4227274    2.3509352    4.5237950 
H    -2.2967761    3.8361707    3.1963699 
H    -0.5774030    4.1104453    3.5420955 
H     0.0595184    2.1467230    2.1472915 
H    -0.9018605    3.2864764    1.1938721 
H    -2.7784586   -0.3333956    2.7288579 
H    -1.0636032   -0.0494172    3.0673662 
H    -3.4294056    1.6172443    4.1248465 
H    -2.4333740    0.4906429    5.0657535 
H    -0.4201319    1.9270196    4.7239783 
H    -1.7310414    2.8895901    5.4375953 
