124
Energy =
C     3.1249806    0.0075490    1.1992212 
C     3.4186651   -0.2798130   -0.1658887 
C     3.0553595    0.6074726   -1.2052771 
H     3.7978083   -1.2727297   -0.4352725 
Pd    1.2266769   -0.0725825   -0.0281482 
P    -0.4295916   -0.1393114   -1.6746616 
P    -0.3862267    0.0139296    1.6681074 
H     3.0528260    1.0675711    1.4806223 
H     2.8368064    1.6485247   -0.9208663 
C     3.9755021   -2.6481049    4.4888353 
C     3.6607573   -1.3007977    4.7180512 
C     3.3860296   -0.4516930    3.6412863 
C     3.4063970   -0.9238908    2.3083594 
C     3.7208466   -2.2876485    2.0978393 
C     4.0065234   -3.1352045    3.1724110 
H     4.1961670   -3.3149360    5.3286613 
H     3.6324306   -0.9077614    5.7393802 
H     3.1668302    0.6037519    3.8340175 
H     3.7364087   -2.6966165    1.0825072 
H     4.2522255   -4.1854485    2.9827054 
C     3.8508383    0.1549515   -5.4024491 
C     3.0460925    1.2043272   -4.9338055 
C     2.7872042    1.3310661   -3.5655312 
C     3.3224456    0.4081855   -2.6369512 
C     4.1249645   -0.6489415   -3.1255194 
C     4.3890201   -0.7697339   -4.4930501 
H     4.0590726    0.0579101   -6.4728740 
H     2.6177729    1.9246731   -5.6378489 
H     2.1547984    2.1496788   -3.2028306 
H     4.5648642   -1.3718169   -2.4323932 
H     5.0207144   -1.5883058   -4.8514400 
Fe   -3.5960249   -1.9682755   -1.2494715 
C    -1.6202982   -1.4253313   -1.1714279 
C    -2.1995802   -1.4861540    0.1596497 
C    -2.6979358   -2.8199833    0.3609215 
C    -2.4379436   -3.5821722   -0.8279195 
C    -1.7893149   -2.7289729   -1.7787065 
C    -5.5117346   -1.5695012   -0.6563040 
C    -5.0202758   -0.5139885   -1.4929553 
C    -4.6663169   -1.0896114   -2.7641455 
C    -4.9337831   -2.4954886   -2.7071711 
C    -5.4561871   -2.7931562   -1.4045229 
C    -2.1728468   -0.3399822    1.1292734 
H    -3.2172221   -3.1813130    1.2500042 
H    -2.7303725   -4.6199925   -0.9982689 
H    -1.4698741   -3.0076103   -2.7831893 
H    -5.8571133   -1.4669150    0.3739573 
H    -4.9344396    0.5366589   -1.2103222 
H    -4.2654645   -0.5626730   -3.6320229 
H    -4.7495426   -3.2159172   -3.5061157 
H    -5.7347081   -3.7822956   -1.0361824 
H    -2.4309351    0.5670274    0.5533823 
C    -3.1212628   -0.4892091    2.3244322 
H    -4.1552332   -0.6111843    1.9588493 
H    -2.8576852   -1.3689525    2.9341652 
H    -3.0829732    0.3975280    2.9786937 
C     0.4441953   -2.5793491    5.4630504 
C    -0.0217749   -1.2562633    5.5755773 
C    -0.2776471   -0.4941005    4.4329404 
C    -0.0787939   -1.0284911    3.1415821 
C     0.3693435   -2.3721998    3.0005691 
C     0.6190886   -3.1084828    4.1721663 
H    -0.1831670   -0.8151927    6.5655353 
H    -0.6343285    0.5345521    4.5457097 
H     0.9781125   -4.1389404    4.0681683 
C    -0.3124003    4.4608491    2.9917042 
C    -1.4537085    3.9892564    2.3247773 
C    -1.5032251    2.6296087    1.9524688 
C    -0.4429239    1.7577316    2.2535143 
C     0.6894810    2.2638329    2.9293132 
C     0.7698625    3.6117534    3.3075935 
H    -0.2613003    5.5188475    3.2761949 
H    -2.3866237    2.2777239    1.4116561 
H     1.5120420    1.5868523    3.1754562 
C     0.7905278   -3.3933889    6.6871095 
H     0.1722958   -3.1067907    7.5542238 
H     0.6631850   -4.4737878    6.5065839 
H     1.8489083   -3.2281097    6.9662557 
C     0.5592407   -3.0443018    1.6609373 
H     1.0199625   -2.3511782    0.9271901 
H     1.2056386   -3.9303594    1.7553258 
H    -0.4040667   -3.3631070    1.2273193 
C    -2.6219079    4.8977740    2.0159288 
H    -3.4634806    4.6976546    2.7051961 
H    -2.3464846    5.9595224    2.1179236 
H    -2.9893949    4.7369144    0.9876703 
C     1.9792324    4.1459327    4.0429580 
H     2.4080492    5.0203804    3.5218740 
H     1.7056585    4.4777765    5.0610484 
H     2.7684465    3.3815440    4.1367083 
C     0.7714137   -1.2979586   -6.0298161 
C    -0.0366599   -0.1993885   -5.7967565 
C    -0.3938434    0.1539771   -4.4721335 
C     0.0405771   -0.6022764   -3.3855357 
H     1.0545896   -1.5718282   -7.0517984 
H    -0.4002608    0.4090209   -6.6308731 
H    -1.0165671    1.0388483   -4.3109663 
C     0.8955518   -1.7432839   -3.5964361 
C     1.2581205   -2.0890832   -4.9490055 
C     2.1069056   -3.2124589   -5.1760842 
C     2.5839299   -3.9731671   -4.1219782 
C     2.2248676   -3.6385138   -2.7905613 
C     1.3999606   -2.5548365   -2.5368666 
H     2.3783681   -3.4628534   -6.2073447 
H     3.2351578   -4.8324351   -4.3120729 
H     2.5998794   -4.2421087   -1.9569829 
H     1.1321630   -2.3124432   -1.5016531 
C    -0.5604592    2.5959101   -1.2560777 
C    -1.2471409    1.4962142   -1.7642153 
C    -2.5396333    1.6774199   -2.3389390 
C    -3.1130505    2.9354550   -2.3937156 
H     0.4225818    2.4575588   -0.7891164 
H    -3.0635351    0.8034611   -2.7264487 
H    -4.1070501    3.0657297   -2.8360786 
C    -2.4264260    4.0815079   -1.8887969 
C    -1.1174620    3.9045808   -1.3094301 
C    -0.4238285    5.0391094   -0.7953447 
C    -0.9929073    6.3001478   -0.8611724 
C    -2.2808335    6.4773326   -1.4365184 
C    -2.9848191    5.3922717   -1.9359327 
H     0.5620461    4.8948758   -0.3407619 
H    -0.4535922    7.1671768   -0.4662178 
H    -2.7182744    7.4799894   -1.4816457 
H    -3.9779543    5.5307957   -2.3767540 
