112
Energy =
C     2.6897516   -1.5354143   -1.4137599 
C     3.0200451   -0.1554882   -1.5722957 
C     3.1977791    0.6799533   -0.4512459 
H     3.0271210    0.2837128   -2.5774786 
Pd    1.0603747   -0.3050935   -0.5259463 
P    -0.3888250    1.3697355    0.2498908 
P    -0.4041831   -2.0749113   -0.0957920 
H     3.0539467   -2.0349552   -0.5057921 
H     3.3862280    0.1774137    0.5095062 
C     1.8473658   -4.2205310   -4.6719108 
C     1.6694062   -2.8371023   -4.8455564 
C     1.9367093   -1.9545883   -3.7940830 
C     2.4049386   -2.4346660   -2.5472573 
C     2.5811652   -3.8284906   -2.3867645 
C     2.3009395   -4.7115538   -3.4375290 
H     1.6326522   -4.9106992   -5.4942548 
H     1.3068733   -2.4464447   -5.8020845 
H     1.7538774   -0.8841260   -3.9340256 
H     2.9350115   -4.2179840   -1.4262398 
H     2.4402119   -5.7877193   -3.2917480 
C     4.2718127    4.8457394   -0.3867160 
C     4.4222072    4.0433856    0.7539336 
C     4.0690276    2.6896144    0.7103083 
C     3.5589721    2.1046574   -0.4722953 
C     3.4478117    2.9198848   -1.6236972 
C     3.7914723    4.2739606   -1.5775497 
H     4.5417618    5.9061685   -0.3549840 
H     4.8192485    4.4725357    1.6796792 
H     4.1949852    2.0670260    1.6026254 
H     3.0882027    2.4945586   -2.5631489 
H     3.6912746    4.8883101   -2.4783676 
Fe   -2.8036521    0.6452131    2.9922089 
C    -1.8946684    0.8160031    1.1435534 
C    -2.2561740   -0.5630605    1.4523281 
C    -3.6830684   -0.6031380    1.6680705 
C    -4.2073442    0.7216814    1.5242625 
C    -3.1175450    1.5970495    1.2272826 
C    -2.1734843   -0.2244805    4.7422654 
C    -1.6090172    1.0860272    4.6190108 
C    -2.6807484    2.0329000    4.5005070 
C    -3.9150227    1.3041823    4.5660653 
C    -3.6019814   -0.0901457    4.7145792 
C    -1.3370067   -1.7599714    1.5242817 
H    -4.2655288   -1.4853069    1.9370169 
H    -5.2485402    1.0171710    1.6648043 
H    -3.2014912    2.6717806    1.0616426 
H    -1.6143533   -1.1564594    4.8454915 
H    -0.5464655    1.3223127    4.6379595 
H    -2.5788399    3.1141077    4.3945880 
H    -4.9172676    1.7303253    4.4932194 
H    -4.3261032   -0.9050100    4.7723610 
H    -0.4901604   -1.4991297    2.1868478 
C    -2.0261844   -3.0232511    2.0659043 
H    -2.5074805   -2.7920211    3.0316735 
H    -2.7999499   -3.3938200    1.3726651 
H    -1.2968679   -3.8318312    2.2279548 
H    -1.8226005    3.0515384   -0.6488715 
C    -1.4429112    0.5247187   -3.0392111 
C    -2.1631431    1.3964459   -2.0007300 
C    -1.2099183    2.3004399   -1.1788364 
C    -0.2214507    3.0583949   -2.0954375 
C     0.4447515    2.1658947   -3.1539409 
C    -0.5808851    1.3764896   -3.9772429 
H    -2.1815962   -0.0750417   -3.5987285 
H    -0.7830712   -0.2016638   -2.5207457 
H    -2.7791673    0.7725064   -1.3302740 
H    -2.8688736    2.0674174   -2.5287741 
H    -0.8050783    3.8444903   -2.6129418 
H     0.5457669    3.5869676   -1.5012942 
H     1.0885994    2.7831810   -3.8056840 
H     1.1030827    1.4373883   -2.6382683 
H    -0.0687390    0.7377079   -4.7197387 
H    -1.2212425    2.0761751   -4.5497712 
H     1.2138376    3.1166727    0.6282131 
C     1.8043653    2.9719855    3.4456384 
C     1.1472320    1.9759266    2.4719653 
C     0.4424930    2.6777209    1.2913554 
C    -0.5119874    3.7859494    1.7792864 
C     0.2153475    4.7886506    2.6930578 
C     0.8380396    4.0765779    3.9031676 
H     2.6638436    3.4491741    2.9410826 
H     2.2109587    2.4234113    4.3151191 
H     0.3920060    1.3678817    3.0005658 
H     1.8985767    1.2655883    2.0831263 
H    -0.9618900    4.3163379    0.9208282 
H    -1.3346399    3.3104246    2.3454983 
H     1.0096916    5.3015109    2.1160436 
H    -0.4934946    5.5693657    3.0231150 
H     0.0315492    3.6414476    4.5247888 
H     1.3704417    4.8001717    4.5457343 
C    -3.2924453   -3.0589367   -3.5979447 
C    -1.9318066   -3.3961681   -3.6642522 
C    -1.0859627   -3.1333205   -2.5806585 
C    -1.5942759   -2.5315631   -1.4072131 
C    -2.9616088   -2.1909922   -1.3482699 
C    -3.8026708   -2.4583287   -2.4378568 
H    -3.9526647   -3.2631702   -4.4471626 
H    -1.5174448   -3.8632948   -4.5634347 
H    -0.0286189   -3.3989667   -2.6489196 
H    -3.3750495   -1.7049918   -0.4628522 
H    -4.8627887   -2.1913003   -2.3768002 
C     2.0053742   -5.8679610    1.1208178 
C     2.3506179   -4.5965398    1.6082737 
C     1.6149508   -3.4727480    1.2121036 
C     0.5205449   -3.6066194    0.3298061 
C     0.1649550   -4.8872712   -0.1356116 
C     0.9117588   -6.0091865    0.2545647 
H     2.5861931   -6.7462206    1.4205617 
H     3.1973202   -4.4804550    2.2927062 
H     1.8941322   -2.4790361    1.5856757 
H    -0.6925446   -5.0135606   -0.8027879 
H     0.6329204   -6.9992339   -0.1208053 
