106
Energy =
C    -1.5647204   -1.4149741   -2.0520397 
C    -0.4027791   -1.6509657   -2.8324073 
C     0.6263431   -2.5193843   -2.3764604 
H    -0.2199794   -1.0208585   -3.7106448 
Pd    0.2927620   -0.8417883   -0.9033576 
P     2.3067537   -0.9829394    0.2186344 
P    -0.5637843    0.9663404    0.2952263 
H    -1.8379133   -2.1965406   -1.3263687 
H     0.3389455   -3.3142546   -1.6732561 
C    -4.8725008    1.1395036   -3.0588299 
C    -4.9459909    0.2683538   -1.9622757 
C    -3.8523943   -0.5426562   -1.6377387 
C    -2.6628884   -0.4989281   -2.4011018 
C    -2.5931077    0.4076437   -3.4839965 
C    -3.6886532    1.2111188   -3.8113615 
H    -5.7299391    1.7664447   -3.3233136 
H    -5.8611937    0.2112427   -1.3639344 
H    -3.9183757   -1.2280274   -0.7859507 
H    -1.6789783    0.4864233   -4.0800199 
H    -3.6187616    1.9013677   -4.6578645 
C     4.4696384   -3.1021988   -4.2296931 
C     4.1268231   -3.7859615   -3.0538109 
C     2.8635416   -3.6077979   -2.4791424 
C     1.9203840   -2.7251209   -3.0551363 
C     2.2769142   -2.0515371   -4.2457436 
C     3.5343337   -2.2431507   -4.8279156 
H     5.4561853   -3.2430835   -4.6826526 
H     4.8445521   -4.4661813   -2.5838096 
H     2.6030899   -4.1478440   -1.5633987 
H     1.5675853   -1.3723705   -4.7300391 
H     3.7874674   -1.7176378   -5.7546982 
Fe    1.7661468   -0.1120839    3.5006355 
C     2.5480319    0.0925628    1.6516255 
C     1.7738477    1.2767823    2.0053707 
C     2.3720509    1.8066728    3.2087477 
C     3.4826699    0.9839031    3.5833654 
C     3.5970847   -0.0770304    2.6323429 
C     1.5470970   -2.0132823    4.1977367 
C     1.8086007   -1.1043192    5.2778829 
C     0.7715075   -0.1107616    5.2853307 
C    -0.1356070   -0.4056913    4.2145732 
C     0.3451896   -1.5794181    3.5418281 
C     0.7544727    2.0166130    1.1646136 
H     2.0296709    2.6835016    3.7587937 
H     4.1085505    1.1217615    4.4668254 
H     4.3279670   -0.8862324    2.6376127 
H     2.1583264   -2.8719627    3.9142760 
H     2.6628263   -1.1431591    5.9564379 
H     0.6998238    0.7341127    5.9728124 
H    -1.0272232    0.1645690    3.9540578 
H    -0.1129497   -2.0558891    2.6764554 
H     1.3002019    2.3832781    0.2710309 
C     0.1666330    3.2422878    1.8829589 
H     0.9678340    3.9710150    2.0922513 
H    -0.5855057    3.7477548    1.2545721 
H    -0.2949706    2.9547253    2.8417555 
C     3.7248799   -0.6512320   -0.8467076 
C     3.7995978   -0.0254541   -2.0747576 
C     5.1886089    0.0536846   -2.4070373 
C     5.8628597   -0.5241691   -1.3590303 
H     2.9521850    0.3162165   -2.6686304 
H     5.6300501    0.4736236   -3.3105301 
H     6.9170930   -0.7045265   -1.1523512 
O     4.9925157   -0.9506071   -0.4025831 
C     2.5457430   -2.6594647    0.8660166 
C     1.6563984   -3.7043125    1.0221642 
C     2.3836483   -4.7774192    1.6302911 
C     3.6657752   -4.3148985    1.8034706 
H     0.6044165   -3.6967836    0.7365440 
H     2.0072855   -5.7641455    1.9001488 
H     4.5763414   -4.7534272    2.2097876 
O     3.7773501   -3.0351910    1.3479265 
C    -2.0019660    4.0909520   -2.8053029 
C    -0.7101547    3.5353573   -2.8993249 
C    -0.3265481    2.5833848   -1.9414930 
C    -1.2090411    2.1950541   -0.9091451 
C    -2.5019507    2.7388817   -0.8608762 
C    -2.9089854    3.7027784   -1.8048239 
H    -2.3147820    4.8364062   -3.5467636 
H     0.6716925    2.1298855   -2.0068008 
H    -3.2138901    2.4043464   -0.1013292 
C    -3.9488489   -0.3027066    3.1857788 
C    -3.6658900    1.0721746    3.0796171 
C    -2.6419135    1.4837888    2.2043159 
C    -1.9208397    0.5388921    1.4458445 
C    -2.2439101   -0.8268126    1.5635414 
C    -3.2499871   -1.2694365    2.4382155 
H    -4.7388332   -0.6299859    3.8720988 
H    -2.4228721    2.5507432    2.1178767 
H    -1.6813675   -1.5557134    0.9676389 
C     0.2241477    3.9425684   -4.0172156 
H    -0.1787785    3.6331480   -4.9992869 
H     0.3502625    5.0391719   -4.0507650 
H     1.2213052    3.4869550   -3.8994864 
C    -4.2891382    4.3154440   -1.7262707 
H    -4.9940141    3.6485249   -1.2029018 
H    -4.2593623    5.2738348   -1.1742967 
H    -4.6929115    4.5279373   -2.7304789 
C    -4.4379227    2.0980289    3.8802574 
H    -5.1782156    1.6218065    4.5427566 
H    -3.7589054    2.7051302    4.5053302 
H    -4.9758030    2.7951624    3.2123850 
C    -3.5318199   -2.7456786    2.6018029 
H    -3.3973272   -3.2903376    1.6512400 
H    -2.8348385   -3.1883107    3.3386436 
H    -4.5569757   -2.9272167    2.9637051 
