98
Energy =
C    -1.3121377   -1.5481181   -2.2120223 
C    -0.8485081   -0.3790828   -2.8632434 
C     0.5373043   -0.0987731   -2.9565623 
H    -1.5751746    0.3598452   -3.2215411 
Pd   -0.1311971   -0.1795662   -0.7755933 
P     1.6053141    1.2129362    0.0309328 
P    -1.0691487   -1.0226669    1.2359546 
H    -0.5962867   -2.3781442   -2.1139015 
H     1.2174964   -0.9565623   -2.8551787 
C    -5.4307235   -2.7995343   -2.0837829 
C    -4.3926581   -3.7352702   -1.9626670 
C    -3.0584250   -3.3115310   -1.9979281 
C    -2.7310989   -1.9432777   -2.1472041 
C    -3.7902519   -1.0151333   -2.2818843 
C    -5.1226511   -1.4387313   -2.2509585 
H    -6.4746810   -3.1276878   -2.0568829 
H    -4.6217042   -4.7995228   -1.8472500 
H    -2.2538194   -4.0523090   -1.9258006 
H    -3.5709949    0.0512400   -2.3984202 
H    -5.9274527   -0.7035011   -2.3533693 
C     2.3196522    3.2815004   -4.9326229 
C     3.0702438    2.1251070   -4.6719154 
C     2.4713386    1.0282856   -4.0399624 
C     1.1133926    1.0663486   -3.6468113 
C     0.3661061    2.2326435   -3.9324839 
C     0.9628576    3.3257224   -4.5685221 
H     2.7850764    4.1413412   -5.4248367 
H     4.1235789    2.0751792   -4.9662268 
H     3.0596436    0.1236802   -3.8507072 
H    -0.6848930    2.2956635   -3.6334676 
H     0.3695704    4.2220913   -4.7763701 
Fe    1.0568256    0.5846327    3.2932525 
C     0.0196607   -1.0197650    2.6981194 
C    -0.3027687   -0.6897425    4.0739758 
H    -1.2833998   -0.4164271    4.4651185 
C     0.9054571   -0.7498320    4.8434161 
H     0.9932547   -0.5227863    5.9073457 
C     1.9782128   -1.1202068    3.9687746 
H     3.0275010   -1.2270235    4.2488799 
C     1.4400987   -1.2941948    2.6526642 
C     1.4531342    1.7901948    1.7499965 
C     2.4819696    1.9218318    2.7646110 
H     3.5464286    1.7160183    2.6428422 
C     1.8551840    2.3457945    3.9822680 
H     2.3612194    2.5021418    4.9365453 
C     0.4506651    2.4936205    3.7383453 
H    -0.3013466    2.7815573    4.4750099 
C     0.1983607    2.1612550    2.3680881 
H     2.0022385   -1.5700960    1.7596974 
H    -0.7719931    2.1601921    1.8713336 
C     2.1628390    2.7996730   -0.8315079 
C     3.6728890    2.8407548   -0.5125109 
C     4.2437613    1.4286424   -0.7044557 
C     3.3109579    0.3950479   -0.0165851 
H     2.0278271    2.6230620   -1.9123309 
H     4.1804565    3.5746789   -1.1641611 
H     3.8187860    3.1817455    0.5302078 
H     4.2838882    1.2024849   -1.7858528 
H     5.2739842    1.3489408   -0.3167362 
H     3.5874460    0.2823319    1.0473376 
C    -1.7260396   -2.8040599    1.1629163 
C    -3.2117941   -2.6889544    1.5927087 
C    -3.3508598   -1.5074918    2.5677486 
C    -2.6647927   -0.2786522    1.9213800 
H    -1.6660125   -3.1077104    0.1066755 
H    -3.8406296   -2.5203419    0.7008614 
H    -3.5610540   -3.6302328    2.0512167 
H    -4.4094946   -1.2854290    2.7932999 
H    -2.8620307   -1.7590512    3.5260892 
H    -2.3682528    0.4703881    2.6771505 
C    -3.5699983    0.3925156    0.8690304 
H    -3.8439638   -0.3479564    0.0989227 
H    -4.5131602    0.6572972    1.3838020 
C    -2.9964768    1.6393788    0.1944698 
H    -2.0496809    1.4040614   -0.3352624 
H    -3.7034831    2.0461598   -0.5488091 
H    -2.7863867    2.4415118    0.9245925 
C    -0.8910600   -3.8009181    1.9945449 
H     0.1818244   -3.6563958    1.7712469 
H    -1.0078463   -3.5779445    3.0714739 
C    -1.2657963   -5.2625548    1.7093234 
H    -0.6484995   -5.9481283    2.3145096 
H    -2.3239144   -5.4709899    1.9459015 
H    -1.1049982   -5.5119057    0.6445418 
C     1.4036105    4.0684956   -0.4138443 
H     1.9088150    4.9271903   -0.8958333 
H     1.5216682    4.2168913    0.6761328 
C    -0.0817698    4.0751275   -0.7884091 
H    -0.2146853    4.0454083   -1.8824038 
H    -0.6039778    3.1980786   -0.3676332 
H    -0.5833432    4.9807783   -0.4073804 
C     3.3410121   -1.0017928   -0.6665008 
H     3.1382218   -0.8978309   -1.7477357 
H     2.5158567   -1.6203443   -0.2637228 
C     4.6792312   -1.7241642   -0.4596688 
H     4.6645759   -2.7240339   -0.9260964 
H     5.5166787   -1.1587481   -0.9041513 
H     4.8952005   -1.8543503    0.6164535 
