122
Energy =
C    -0.5372340   -2.7345934    1.9829837 
C     0.1448624   -1.9075146    2.9120241 
C    -0.4551209   -0.7586123    3.4803956 
H     1.2031609   -2.1074938    3.1154980 
Pd   -0.2900904   -0.6151542    1.1778955 
P     0.0819876    1.7311189    1.1567401 
P    -0.1046218   -1.0272292   -1.1153994 
H    -1.6373535   -2.7068035    1.9911840 
H    -1.5538603   -0.7160910    3.4759027 
C     1.1068256   -6.3197995    0.2586430 
C     1.9699176   -5.3513336    0.7986826 
C     1.4521025   -4.1817343    1.3642369 
C     0.0554764   -3.9471820    1.3941209 
C    -0.7978426   -4.9374717    0.8591706 
C    -0.2789948   -6.1110568    0.2993359 
H     1.5144817   -7.2284088   -0.1934311 
H     3.0528304   -5.5044732    0.7762350 
H     2.1463172   -3.4488916    1.7887366 
H    -1.8817158   -4.7890345    0.8892379 
H    -0.9648010   -6.8590542   -0.1104859 
C     1.3762034    1.7534436    6.4515541 
C     2.1555798    0.8099993    5.7611716 
C     1.5812965    0.0066828    4.7736719 
C     0.2040737    0.1150181    4.4639668 
C    -0.5669369    1.0676727    5.1695089 
C     0.0131460    1.8825722    6.1481626 
H     1.8311305    2.3827928    7.2233922 
H     3.2207776    0.7060401    5.9891443 
H     2.2143614   -0.7077533    4.2398099 
H    -1.6356104    1.1606631    4.9555307 
H    -0.6044852    2.6109865    6.6834373 
Fe   -3.6237540    2.0248599   -2.3300495 
C    -2.1834137    0.8195596   -1.5719251 
C    -1.9424434    2.1932285   -1.1727021 
C    -3.1176299    2.6553351   -0.4742274 
H    -3.2446337    3.6552162   -0.0569414 
C    -4.0549777    1.5744886   -0.3968801 
H    -5.0466933    1.6199437    0.0565423 
C    -3.4841769    0.4434776   -1.0673320 
H    -3.9696807   -0.5231789   -1.2243682 
C    -4.1229289    1.4497388   -4.2305927 
H    -3.8701628    0.5031825   -4.7127552 
C    -3.3448148    2.6556901   -4.2636296 
H    -2.3966656    2.7917399   -4.7867398 
C    -4.0402671    3.6541501   -3.4999520 
H    -3.7094555    4.6791488   -3.3222388 
C    -5.2490698    3.0661196   -3.0003862 
H    -5.9869620    3.5591494   -2.3648712 
C    -5.2998388    1.7043328   -3.4503468 
H    -6.0844860    0.9814675   -3.2188809 
C    -0.6642962    2.9383384   -1.3124582 
C     0.3827792    2.7512672   -0.3663028 
C     1.5969004    3.4507906   -0.5277191 
H     2.4130813    3.3029146    0.1838034 
C     1.7749879    4.3421013   -1.5942639 
H     2.7302433    4.8620416   -1.7072479 
C     0.7362948    4.5532243   -2.5086821 
H     0.8641557    5.2554760   -3.3386097 
C    -0.4683506    3.8530625   -2.3636134 
H    -1.2867611    3.9991221   -3.0723591 
C     1.6877408   -0.6969329   -1.3979923 
C     2.2344795    0.4432056   -2.0185722 
H     1.6016596    1.1849271   -2.5038520 
C     3.6230060    0.6473039   -2.0057336 
C     4.4837110   -0.2515973   -1.3602925 
H     5.5628758   -0.0792137   -1.3493740 
C     3.9375228   -1.3727980   -0.7251062 
C     2.5557287   -1.5996465   -0.7492324 
H     2.1501086   -2.4779257   -0.2357203 
C    -0.3636467   -2.7419488   -1.7547624 
C    -1.6724480   -3.2470974   -1.6276036 
H    -2.4337076   -2.6805589   -1.0800602 
C    -2.0235258   -4.4705528   -2.2100088 
C    -1.0643824   -5.2342158   -2.8873257 
H    -1.3378899   -6.1916616   -3.3390694 
C     0.2507395   -4.7564858   -2.9696506 
C     0.6021928   -3.5142107   -2.4224672 
H     1.6283543   -3.1599018   -2.5426962 
C    -1.2755813   -0.1138081   -2.3236723 
H    -1.9088443   -0.9630500   -2.6292776 
C    -0.6160491    0.4216003   -3.6056263 
H    -1.4010141    0.5629820   -4.3642226 
H    -0.1296250    1.3953277   -3.4508956 
H     0.1235898   -0.2922978   -4.0065122 
C    -3.4244855   -5.0069123   -2.0182554 
F    -3.8098492   -5.7921760   -3.0417941 
F    -3.5046698   -5.7552622   -0.8820658 
F    -4.3276718   -4.0037725   -1.8911208 
C     1.2961912   -5.6143918   -3.6534729 
F     2.4760477   -4.9677421   -3.7843914 
F     1.5276069   -6.7473618   -2.9436519 
F     0.8891344   -5.9935943   -4.8846998 
C     4.2238581    1.8790430   -2.6510039 
F     5.3639538    1.5815791   -3.3091114 
F     3.3744049    2.4593503   -3.5279792 
F     4.5400328    2.8110708   -1.7115096 
C     4.8048460   -2.3172491    0.0755634 
F     4.5829469   -3.6091063   -0.2610781 
F     6.1171979   -2.0632194   -0.0691139 
F     4.5118322   -2.2048970    1.4082198 
C     4.1752820    2.2796373    3.3039074 
C     3.1151752    3.1330038    3.6431806 
C     1.8569461    2.9798701    3.0429110 
C     1.6535604    1.9661780    2.0889059 
C     2.7161038    1.0921612    1.7722950 
C     3.9710416    1.2496489    2.3730114 
H     5.1547791    2.4070695    3.7762210 
H     3.2616162    3.9200202    4.3899341 
H     1.0363967    3.6400027    3.3356509 
H     2.5590050    0.2847925    1.0500957 
H     4.7818128    0.5593543    2.1190278 
C    -3.2489593    4.2672707    3.1863265 
C    -3.3651934    2.8709424    3.1229165 
C    -2.3511149    2.1104869    2.5253213 
C    -1.2095349    2.7369671    1.9939817 
C    -1.1119975    4.1445077    2.0317980 
C    -2.1242670    4.9027472    2.6351249 
H    -4.0410770    4.8632745    3.6513319 
H    -4.2529806    2.3733306    3.5269287 
H    -2.4596052    1.0252901    2.4350290 
H    -0.2567164    4.6493934    1.5698883 
H    -2.0394884    5.9939560    2.6660763 
