118
Energy =
C    -0.7610512    2.4373212   -1.8251262 
C    -0.7327048    1.3118214   -2.6804849 
C    -1.6579689    0.2454817   -2.5542463 
H     0.0756735    1.2275001   -3.4164014 
Pd   -0.3655380    0.4583701   -0.6645993 
P    -0.6562032   -1.8105092   -0.0068763 
P     0.8569418    1.3682796    1.1320687 
H    -1.6995565    2.6251557   -1.2834243 
H    -2.6071538    0.4673627   -2.0462831 
C     1.6430840    5.9690951   -2.3783136 
C     0.4703659    6.0115928   -1.6096442 
C    -0.2953137    4.8533623   -1.4322707 
C     0.1006574    3.6200179   -2.0020513 
C     1.2830122    3.5967484   -2.7790890 
C     2.0374174    4.7583025   -2.9715676 
H     2.2404049    6.8745200   -2.5253323 
H     0.1423176    6.9536969   -1.1585005 
H    -1.2262768    4.9050740   -0.8590045 
H     1.6230437    2.6619803   -3.2359697 
H     2.9423278    4.7198267   -3.5864802 
C    -1.8837422   -3.1331541   -5.2198223 
C    -2.9732401   -2.7848936   -4.4074109 
C    -2.8871724   -1.6787592   -3.5529459 
C    -1.7069546   -0.9030038   -3.4776485 
C    -0.6206318   -1.2634559   -4.3109856 
C    -0.7111040   -2.3606788   -5.1733600 
H    -1.9489082   -3.9954755   -5.8908738 
H    -3.8976561   -3.3702815   -4.4468208 
H    -3.7512829   -1.3983059   -2.9403916 
H     0.3140329   -0.6946030   -4.2706525 
H     0.1418508   -2.6218128   -5.8081744 
Fe    1.3347392   -1.6603786    2.8064176 
C    -0.0960500   -2.4309929    1.6137764 
C    -0.6619009   -2.0089223    2.8787005 
H    -1.4578671   -1.2768335    3.0051314 
C    -0.0094028   -2.7244901    3.9333931 
H    -0.2020102   -2.6047228    5.0008317 
C     0.9582009   -3.5993253    3.3425336 
H     1.6425067   -4.2590998    3.8789404 
C     0.9103503   -3.4279888    1.9201527 
C     1.7906160    0.2102928    2.1871693 
C     2.7444384   -0.7601803    1.6886043 
H     2.9398956   -0.9773270    0.6386894 
C     3.3590966   -1.4075271    2.8104891 
H     4.1005257   -2.2068577    2.7594649 
C     2.7928469   -0.8579248    4.0068244 
H     3.0264051   -1.1648188    5.0279345 
C     1.8320763    0.1369559    3.6334320 
H     1.5500906   -3.9434725    1.2044256 
H     1.2299200    0.7235141    4.3283764 
H     1.6510983    3.3487467    0.0285850 
H     0.4898409    2.6151307    3.1699250 
H    -2.6756557   -2.4090781   -1.1066203 
H    -0.3235793   -2.4689289   -2.2294939 
C     4.2954647    2.8803998   -0.8115215 
C     3.2043473    1.8976504   -0.3494884 
C     2.1953286    2.5756286    0.6036821 
C     2.9136589    3.2435920    1.7960793 
C     3.9982017    4.2234314    1.3081874 
C     5.0097873    3.5272187    0.3852284 
H     3.8332300    3.6727213   -1.4271682 
H     5.0181470    2.3499968   -1.4579712 
H     3.6943099    1.0593321    0.1773579 
H     2.6677677    1.4663301   -1.2163968 
H     2.1908328    3.7824069    2.4340873 
H     3.3795166    2.4606785    2.4254604 
H     3.5129915    5.0551140    0.7601849 
H     4.5085922    4.6702413    2.1802354 
H     5.5530395    2.7495379    0.9578233 
H     5.7680325    4.2490178    0.0327551 
C    -2.1921692    2.2639898    3.9285372 
C    -1.3346538    1.4699494    2.9272669 
C    -0.1951513    2.3310607    2.3477190 
C    -0.7608233    3.6170849    1.7160012 
C    -1.6084719    4.4117124    2.7253964 
C    -2.7450226    3.5539137    3.3031483 
H    -1.5722490    2.5201252    4.8102610 
H    -3.0153592    1.6257437    4.2977290 
H    -1.9670050    1.1143696    2.0894538 
H    -0.9136905    0.5759385    3.4127490 
H     0.0487792    4.2529072    1.3196807 
H    -1.3952568    3.3304750    0.8564671 
H    -0.9558041    4.7641040    3.5479681 
H    -2.0133391    5.3157335    2.2355840 
H    -3.4527050    3.2915351    2.4912691 
H    -3.3204205    4.1287155    4.0502407 
C    -4.8647020   -1.4370667    0.2652255 
C    -3.3753614   -1.1120506    0.4786934 
C    -2.4805410   -2.2680211   -0.0254311 
C    -2.8511157   -3.5715227    0.7183901 
C    -4.3370332   -3.9105814    0.4906691 
C    -5.2525870   -2.7615504    0.9434771 
H    -5.0658843   -1.5081956   -0.8223550 
H    -5.4873631   -0.6080497    0.6473267 
H    -3.1910761   -0.9547842    1.5587209 
H    -3.1045148   -0.1646725   -0.0228933 
H    -2.2133313   -4.4110893    0.4003543 
H    -2.6681089   -3.4341728    1.7999273 
H    -4.5025438   -4.1147051   -0.5859196 
H    -4.5904435   -4.8402985    1.0307691 
H    -5.1681461   -2.6430704    2.0418573 
H    -6.3093362   -3.0041380    0.7329246 
C     0.5836533   -5.0695197   -2.4960409 
C    -0.1007114   -4.3829075   -1.2969377 
C     0.1624753   -2.8614770   -1.3177441 
C     1.6666003   -2.5158900   -1.4335017 
C     2.3176031   -3.2333546   -2.6287749 
C     2.0851046   -4.7509809   -2.5616354 
H     0.0964213   -4.7252179   -3.4286646 
H     0.4194436   -6.1602092   -2.4339625 
H     0.2632938   -4.8314449   -0.3549886 
H    -1.1856320   -4.5736033   -1.3449258 
H     1.7803398   -1.4181284   -1.5300276 
H     2.1937134   -2.8078197   -0.5066864 
H     1.8826981   -2.8404323   -3.5676445 
H     3.3980422   -3.0032262   -2.6552631 
H     2.5896128   -5.1606861   -1.6635228 
H     2.5446721   -5.2481356   -3.4344229 
