86
Energy =
C     0.0735021    3.0461559    0.1909422 
C     0.7724563    2.5716759    1.3259944 
C     2.0118633    1.8947312    1.1934097 
H     0.3046155    2.6477273    2.3150079 
Pd    0.3581372    0.7516845    0.1316586 
P     1.4231137   -1.3566454    0.2591755 
P    -1.5341646    0.2394835   -1.1967513 
H     0.6597789    3.1927921   -0.7290106 
H     2.5884189    2.1002283    0.2798466 
C    -3.5208519    5.4133390    0.3236405 
C    -2.6733847    5.4559116   -0.7932963 
C    -1.5131827    4.6724438   -0.8243249 
C    -1.1757951    3.8253058    0.2572832 
C    -2.0342609    3.8057756    1.3822872 
C    -3.1922215    4.5895967    1.4137089 
H    -4.4286945    6.0243133    0.3503355 
H    -2.9126830    6.1064062   -1.6406499 
H    -0.8457292    4.7268535   -1.6920815 
H    -1.7966694    3.1711016    2.2420829 
H    -3.8436877    4.5589552    2.2931030 
C     4.3837041    0.3592683    4.4374980 
C     3.0049714    0.5634335    4.6202593 
C     2.2223787    1.0706162    3.5785171 
C     2.8030412    1.3893394    2.3279745 
C     4.1937067    1.1925566    2.1638523 
C     4.9760600    0.6804160    3.2068197 
H     4.9923540   -0.0440562    5.2530297 
H     2.5374139    0.3152826    5.5785960 
H     1.1438873    1.1885280    3.7271968 
H     4.6636937    1.4475971    1.2074815 
H     6.0511775    0.5350898    3.0597005 
Fe   -0.7589441   -2.9644851   -1.7354361 
C    -1.3609634   -1.1575722   -2.3451100 
C    -2.3489252   -2.1603139   -2.6946114 
H    -3.3875806   -2.1920297   -2.3621851 
C    -1.7184635   -3.1280750   -3.5434185 
H    -2.1930214   -4.0230565   -3.9496059 
C    -0.3526652   -2.7381635   -3.7349559 
H     0.3948645   -3.2842453   -4.3128377 
C    -0.1284866   -1.5238042   -3.0083958 
C     0.4186228   -2.8251139   -0.1257558 
C     0.7674124   -3.9990301   -0.9042505 
H     1.7313161   -4.2090610   -1.3699966 
C    -0.3913363   -4.8392530   -0.9864291 
H    -0.4554966   -5.7816817   -1.5331439 
C    -1.4550786   -4.2120203   -0.2592534 
H    -2.4720894   -4.5934767   -0.1535516 
C    -0.9609363   -2.9806864    0.2803294 
H     0.8117799   -0.9736375   -2.9447481 
H    -1.5223235   -2.2701710    0.8887359 
C     2.2983811   -1.9170454    1.8241352 
C     3.3757646   -2.8758127    1.2778602 
C     4.0373715   -2.1717054    0.0816178 
C     2.9444829   -1.5642886   -0.8451370 
H     2.8044226   -1.0172963    2.2096131 
H     4.1136985   -3.1141950    2.0650318 
H     2.9111072   -3.8314357    0.9694626 
H     4.6697332   -1.3483560    0.4624795 
H     4.6963319   -2.8488582   -0.4893575 
H     2.6355650   -2.3010893   -1.6065232 
C    -2.2907054    1.6281321   -2.2475799 
C    -3.6539796    1.9010657   -1.5638913 
C    -4.2249142    0.5593053   -1.0733151 
C    -3.1223390   -0.1544026   -0.2542277 
H    -1.6333222    2.5047042   -2.1413216 
H    -3.5083013    2.5812898   -0.7062957 
H    -4.3413021    2.4101147   -2.2625178 
H    -5.1343441    0.7003184   -0.4620356 
H    -4.5127463   -0.0644684   -1.9394886 
H    -3.2433790   -1.2501856   -0.2871348 
C    -3.0601013    0.3029308    1.2113915 
H    -2.9592235    1.3978790    1.2840816 
H    -3.9867278    0.0117800    1.7366385 
C    -2.4091656    1.2753450   -3.7385841 
H    -1.4313086    1.0186163   -4.1795858 
H    -3.0861088    0.4214463   -3.9101853 
C     1.3791223   -2.4829052    2.9080202 
H     0.6251807   -1.7400192    3.2227217 
H     1.9753773   -2.7505180    3.7979150 
C     3.3999649   -0.2874059   -1.5637084 
H     2.5998974    0.1499197   -2.1864366 
H     4.2594592   -0.5110069   -2.2202702 
H    -2.8126090    2.1463142   -4.2852715 
H    -2.2031175   -0.1487121    1.7423542 
H     3.7245660    0.4800963   -0.8416697 
H     0.8526349   -3.3895816    2.5625475 
