132
Energy =
C     2.4368754   -2.1010576    0.2717119 
C     2.1438595   -2.2179004    1.6595475 
C     0.9971700   -2.9166003    2.1082219 
H     2.7382136   -1.6429385    2.3800790 
Pd    0.4408400   -1.1692560    0.7315325 
P    -1.6438664   -0.4256070    1.5272238 
P     0.4365960    0.1603331   -1.1817407 
H     2.0785453   -2.9103489   -0.3791685 
H     0.5489943   -3.6331527    1.4025480 
C     5.7867940    0.0548108   -1.3553143 
C     5.1349096   -0.9313664   -2.1097818 
C     4.0319255   -1.6104074   -1.5765714 
C     3.5628882   -1.3210266   -0.2751459 
C     4.2065837   -0.2959019    0.4575736 
C     5.3090737    0.3788926   -0.0744731 
H     6.6539580    0.5809432   -1.7668535 
H     5.4910208   -1.1812073   -3.1147655 
H     3.5305036   -2.3841112   -2.1679986 
H     3.8344831   -0.0123742    1.4474775 
H     5.7929634    1.1705100    0.5065475 
C    -0.1611788   -3.6550073    6.1902954 
C    -0.8668929   -4.2350247    5.1249208 
C    -0.4740939   -3.9855173    3.8050928 
C     0.6212974   -3.1363435    3.5148144 
C     1.3222593   -2.5612214    4.6002218 
C     0.9398133   -2.8258646    5.9198973 
H    -0.4587314   -3.8554602    7.2244490 
H    -1.7185306   -4.8939392    5.3235351 
H    -1.0180778   -4.4559393    2.9793682 
H     2.1807128   -1.9074614    4.4171213 
H     1.5054459   -2.3817428    6.7454863 
Fe   -1.7614025    2.8826360   -1.8261279 
C    -1.1703231    0.9742642   -1.5048706 
C    -2.1185429    1.4062900   -0.4856864 
C    -3.3346916    1.7810808   -1.1636940 
C    -3.1534937    1.5913425   -2.5716775 
C    -1.8285734    1.0978319   -2.7900029 
C    -2.1648009    4.7825380   -1.2160475 
C    -0.8271118    4.4093834   -0.8466330 
C    -0.1109812    4.0815568   -2.0476253 
C    -1.0059783    4.2409911   -3.1565160 
C    -2.2761209    4.6747792   -2.6445085 
C     0.7393804   -0.7506337   -2.7394392 
C     0.6315732   -2.1528960   -2.7288446 
C     0.8252863   -2.9163026   -3.8924461 
C     1.1225247   -2.2308288   -5.0925573 
C     1.2212402   -0.8192380   -5.1421282 
C     1.0151091   -0.0945087   -3.9580624 
C     1.7232195    1.4527824   -0.9783499 
C     2.7290276    1.7374838   -1.9169116 
C     3.6593664    2.7681536   -1.6936937 
C     3.5729477    3.5055613   -0.4922102 
C     2.6108239    3.2009006    0.4992596 
C     1.7032609    2.1657436    0.2376907 
C    -1.9045263    1.3834541    1.0076605 
H    -4.2316516    2.1844365   -0.6920199 
H    -3.8869941    1.8176120   -3.3475309 
H    -1.3922033    0.8451203   -3.7558953 
H    -2.9630660    5.0836459   -0.5348036 
H    -0.4226707    4.3751542    0.1667811 
H     0.9258860    3.7477651   -2.1003800 
H    -0.7695360    4.0502958   -4.2049701 
H    -3.1738817    4.8696890   -3.2339535 
H     0.3946389   -2.6651745   -1.7890501 
H     1.0665652    0.9985324   -3.9974241 
H     2.8286445    1.1374875   -2.8236829 
H     0.9765966    1.8987881    1.0139458 
H    -0.9157833    1.8257657    1.2171800 
H    -1.2989328   -1.5120163    3.6028747 
H    -2.7503977   -1.3216482   -0.3374063 
C    -5.4254113   -1.8244818    0.0788745 
C    -4.4697276   -0.9379613    0.9005962 
C    -3.0128209   -1.4231087    0.7361923 
C    -2.8673685   -2.9144852    1.1144468 
C    -3.8430168   -3.7902305    0.3082571 
C    -5.2938958   -3.3067963    0.4632480 
H    -5.1944843   -1.7001900   -0.9975997 
H    -6.4645711   -1.4777107    0.2221940 
H    -4.7644641   -0.9701660    1.9639798 
H    -4.5605234    0.1080028    0.5682595 
H    -1.8256364   -3.2401598    0.9391270 
H    -3.0651729   -3.0410359    2.1966484 
H    -3.5562230   -3.7537671   -0.7614209 
H    -3.7477469   -4.8441386    0.6267993 
H    -5.6129221   -3.4404823    1.5160571 
H    -5.9710667   -3.9252387   -0.1523770 
C    -2.9243903   -0.4763469    5.6188951 
C    -3.0772713   -0.4081257    4.0872325 
C    -1.6993886   -0.5011181    3.3948984 
C    -0.6697181    0.5155877    3.9539174 
C    -0.5893481    0.4733632    5.4901358 
C    -1.9754801    0.6150118    6.1368654 
H    -2.5238689   -1.4706671    5.8982857 
H    -3.9193369   -0.3863989    6.0905293 
H    -3.5917624    0.5298429    3.8152432 
H    -3.7199584   -1.2364071    3.7435501 
H     0.3235841    0.3063267    3.5099251 
H    -0.9457127    1.5414671    3.6448516 
H    -0.1475614   -0.4902045    5.7989065 
H     0.0924620    1.2685624    5.8425550 
H    -2.3988071    1.6128377    5.9038777 
H    -1.8885466    0.5585163    7.2365890 
C    -2.9548482    2.2104274    1.7689166 
H    -2.9881584    3.2215137    1.3267411 
H    -3.9643898    1.7764122    1.7058109 
H    -2.6942413    2.3141510    2.8327856 
C     0.7478200   -4.4248119   -3.8676187 
H    -0.2563608   -4.7810502   -4.1648645 
H     1.4735707   -4.8600758   -4.5740537 
H     0.9504124   -4.8161683   -2.8569207 
C     1.5570171   -0.1324281   -6.4448748 
H     0.6966400   -0.1468846   -7.1393744 
H     1.8378348    0.9203096   -6.2793983 
H     2.3859241   -0.6527126   -6.9532973 
O     1.3974559   -2.9468436   -6.2350554 
C     0.2687470   -3.3207116   -7.0387067 
H     0.6739467   -3.8623105   -7.9061242 
H    -0.4229278   -3.9816540   -6.4833410 
H    -0.2873247   -2.4298032   -7.3869015 
C     4.7482415    3.0698897   -2.6948779 
H     5.6935309    3.3050878   -2.1787535 
H     4.9084025    2.2151713   -3.3712754 
H     4.4890696    3.9477444   -3.3160167 
C     2.5888055    3.9637666    1.8025036 
H     3.6144831    4.1635513    2.1540033 
H     2.0925254    4.9454674    1.6825636 
H     2.0405034    3.4060898    2.5799814 
O     4.5163274    4.4739209   -0.2276121 
C     4.1896617    5.7997555   -0.6689645 
H     5.0350590    6.4408956   -0.3783604 
H     4.0591655    5.8374279   -1.7670134 
H     3.2644819    6.1670441   -0.1855362 
