98
Energy =
C     0.5650743   -2.0673760   -1.9342729 
C     1.5139300   -1.0771067   -2.3665177 
C     2.6354368   -0.7579634   -1.5894542 
H     1.3188520   -0.5328322   -3.2994266 
Pd    0.4462883   -0.3719823   -0.5427085 
P     0.4785115    1.8837181    0.3258593 
P    -1.1573118   -1.5181892    0.7717150 
H     0.9537454   -2.9060461   -1.3381991 
H     2.8463159   -1.4176540   -0.7340720 
C    -2.8640098   -2.9640222   -4.3804021 
C    -2.5298569   -1.6273242   -4.1066101 
C    -1.4176802   -1.3324017   -3.3111747 
C    -0.6242173   -2.3674305   -2.7631343 
C    -0.9736448   -3.7044988   -3.0442667 
C    -2.0802724   -3.9990782   -3.8497692 
H    -3.7328432   -3.1960800   -5.0049394 
H    -3.1385627   -0.8142210   -4.5160657 
H    -1.1649828   -0.2878235   -3.0920138 
H    -0.3700080   -4.5170596   -2.6286093 
H    -2.3351843   -5.0431844   -4.0573850 
C     5.8972247    1.8662061   -2.5215059 
C     5.9410586    1.0386825   -1.3890799 
C     4.8666592    0.1906290   -1.1031437 
C     3.7253352    0.1504455   -1.9420097 
C     3.7090328    0.9729442   -3.0957348 
C     4.7804495    1.8246258   -3.3753036 
H     6.7343881    2.5345902   -2.7469627 
H     6.8141673    1.0552580   -0.7290556 
H     4.9017699   -0.4528036   -0.2169403 
H     2.8541176    0.9479903   -3.7774286 
H     4.7516374    2.4571563   -4.2683537 
Fe   -2.4485950    1.2581210    2.1558393 
C    -0.6922479    2.1625850    1.7075714 
C    -0.6020447    1.4046396    2.9430131 
H     0.0592844    0.5580587    3.1293304 
C    -1.5608980    1.9250633    3.8708845 
H    -1.7509038    1.5380353    4.8734723 
C    -2.2631593    2.9955947    3.2306054 
H    -3.0827902    3.5753853    3.6588536 
C    -1.7349853    3.1501458    1.9079508 
C    -2.5955790   -0.5655835    1.3405237 
C    -3.2713972    0.4030327    0.5058295 
H    -3.0295154    0.6098728   -0.5352311 
C    -4.2989457    1.0263754    1.2829656 
H    -4.9666506    1.8192639    0.9416442 
C    -4.2785013    0.4464857    2.5936352 
H    -4.9195638    0.7298361    3.4304565 
C    -3.2360441   -0.5371769    2.6392270 
C    -1.9335356   -3.0622422    0.1300615 
C    -1.2621893   -4.2969968    0.2541476 
H    -0.2776266   -4.3427987    0.7326255 
C    -1.8661866   -5.4767947   -0.2018517 
H    -1.3445000   -6.4325136   -0.0848337 
C    -3.1349323   -5.4340476   -0.7989557 
H    -3.6075386   -6.3569493   -1.1504585 
C    -3.7940831   -4.2050925   -0.9481359 
H    -4.7793386   -4.1633393   -1.4233032 
C    -3.1994820   -3.0229379   -0.4871828 
H    -3.7304606   -2.0729642   -0.5985985 
C    -0.3168265   -2.1217962    2.2951876 
C     1.0334370   -1.7924508    2.5180568 
H     1.5594444   -1.1824338    1.7744381 
C     1.6941260   -2.2331201    3.6738357 
H     2.7436772   -1.9667957    3.8366958 
C     1.0088858   -3.0171133    4.6131577 
H     1.5206087   -3.3629412    5.5172244 
C    -0.3305138   -3.3736176    4.3852872 
H    -0.8608980   -4.0025830    5.1078174 
C    -0.9911731   -2.9376581    3.2291238 
H    -2.0238785   -3.2497902    3.0418502 
H    -2.0862320    3.8838266    1.1836299 
H    -2.9484528   -1.1197953    3.5144853 
C     2.1107940    2.5790467    1.1026619 
C    -0.0988313    3.0220714   -1.1133384 
C     1.8301353    3.7257970    2.0978683 
H     2.7973032    4.0964314    2.4852970 
H     1.3128751    4.5748361    1.6243546 
H     1.2283921    3.3919554    2.9580042 
C     2.7650373    1.3987017    1.8538049 
H     3.7156441    1.7381399    2.3048002 
H     2.1284639    1.0195364    2.6693832 
H     2.9911126    0.5668670    1.1650686 
C     3.0922515    3.0657924    0.0178952 
H     4.0665022    3.2748505    0.4954281 
H     3.2654758    2.3072855   -0.7585465 
H     2.7577709    3.9979487   -0.4631788 
C    -1.5485306    2.6202082   -1.4638650 
H    -2.2543461    2.7907424   -0.6377520 
H    -1.8830668    3.2126389   -2.3350273 
H    -1.5960756    1.5522318   -1.7417865 
C    -0.0314672    4.5307617   -0.7958367 
H    -0.4678552    5.0895210   -1.6444274 
H    -0.5952554    4.8049695    0.1086624 
H     1.0044134    4.8818227   -0.6712980 
C     0.7643075    2.7154089   -2.3585521 
H     0.3673087    3.2883019   -3.2165514 
H     1.8210796    2.9875639   -2.2332114 
H     0.7113466    1.6426109   -2.6137676 
