134
Energy =
C     2.8483526    1.3262553   -1.0782531 
C     1.8108634    1.9369708   -1.8502838 
C     0.9411644    2.8984052   -1.3009837 
H     1.6412611    1.5871171   -2.8761482 
Pd    0.8323120    0.7879908   -0.2283885 
P    -1.5015158    0.6738814   -0.2247048 
P     1.5541560   -0.6649570    1.5091617 
H     3.2666294    1.9207053   -0.2557410 
H     1.2187289    3.3370779   -0.3303482 
C     5.6932415   -1.2465186   -3.0291075 
C     6.1029491   -0.3690824   -2.0135751 
C     5.1601594    0.4281203   -1.3521085 
C     3.7912359    0.3748970   -1.7031880 
C     3.3899204   -0.5351988   -2.7093007 
C     4.3317937   -1.3333335   -3.3662929 
H     6.4288736   -1.8684556   -3.5488957 
H     7.1606693   -0.3010209   -1.7394634 
H     5.4882602    1.1264160   -0.5734309 
H     2.3327174   -0.6218868   -2.9812479 
H     4.0021915   -2.0276474   -4.1458823 
C    -2.1312005    5.0668639   -3.3807647 
C    -1.9290228    5.2546504   -2.0050429 
C    -0.9144817    4.5536970   -1.3449862 
C    -0.0991063    3.6260679   -2.0374037 
C    -0.2958482    3.4705284   -3.4311696 
C    -1.2972635    4.1875079   -4.0916752 
H    -2.9279891    5.6062863   -3.9017970 
H    -2.5555974    5.9578615   -1.4469964 
H    -0.7404715    4.7351613   -0.2809896 
H     0.3400907    2.7937442   -4.0077551 
H    -1.4383764    4.0554806   -5.1685423 
Fe   -2.0695951   -3.9999350   -0.7104525 
C    -1.4926639   -2.0804756   -0.4338798 
C    -0.5229169   -2.9659735    0.1947773 
C    -0.0396564   -3.8653073   -0.8283966 
H     0.6846156   -4.6641683   -0.6611638 
C    -0.6477698   -3.5196880   -2.0780381 
H    -0.4846859   -4.0167429   -3.0354834 
C    -1.5506260   -2.4336101   -1.8386407 
H    -2.2158058   -1.9870171   -2.5778695 
C    -4.0728700   -4.0738953   -0.3167759 
H    -4.7221962   -3.2202811   -0.1108540 
C    -3.3493983   -4.8375238    0.6591988 
H    -3.3623426   -4.6722584    1.7383200 
C    -2.6148816   -5.8600553   -0.0337179 
H    -1.9683454   -6.6144439    0.4190908 
C    -2.8865243   -5.7273625   -1.4359707 
H    -2.4663455   -6.3443706   -2.2322722 
C    -3.7890167   -4.6251340   -1.6111267 
H    -4.1705636   -4.2551138   -2.5645842 
C    -0.0977723   -3.0595013    1.6235224 
C     0.6569608   -2.0749194    2.3239289 
C     0.9307035   -2.2888968    3.6971411 
H     1.4941192   -1.5456389    4.2647292 
C     0.5261981   -3.4463484    4.3693292 
H     0.7550049   -3.5654513    5.4330624 
C    -0.1415101   -4.4496987    3.6592303 
H    -0.4394122   -5.3811043    4.1513830 
C    -0.4439011   -4.2438166    2.3114730 
H    -0.9801651   -5.0076647    1.7471903 
C    -2.5126948    1.9167139    0.6727102 
C    -1.8492638    2.9379979    1.3671887 
H    -0.7565567    2.9783123    1.3540833 
C    -2.5756059    3.9140519    2.0665904 
C    -3.9743903    3.8833689    2.0750976 
H    -4.5401636    4.6529743    2.6076966 
C    -4.6428101    2.8541991    1.3902587 
C    -3.9225709    1.8716258    0.7016164 
H    -4.4739458    1.0775234    0.1900858 
C    -1.9466384    0.8918499   -2.0052244 
C    -1.0670837    0.2956842   -2.9256712 
H    -0.1784728   -0.2313426   -2.5616253 
C    -1.3166411    0.3626376   -4.3022730 
C    -2.4408632    1.0404276   -4.7860360 
H    -2.6266544    1.1092608   -5.8611335 
C    -3.2990633    1.6696421   -3.8699768 
C    -3.0609879    1.5985371   -2.4899693 
H    -3.7326273    2.1321435   -1.8141077 
C    -2.3209323   -0.9867015    0.1915572 
H    -3.2886374   -0.9618613   -0.3413945 
C    -2.5720737   -1.1225658    1.7021221 
H    -2.8474245   -2.1669657    1.9233322 
H    -1.6763030   -0.8809611    2.2950213 
H    -3.3906334   -0.4631486    2.0305855 
C    -0.2903277   -0.2383572   -5.2323197 
F     0.8461548    0.5247075   -5.2442871 
F     0.0905026   -1.4743694   -4.8176953 
F    -0.7257026   -0.3349262   -6.4992884 
C    -4.4891720    2.4461679   -4.3952106 
F    -5.0018413    3.2742086   -3.4551135 
F    -4.1404768    3.2060243   -5.4636758 
F    -5.4794877    1.6198554   -4.7983131 
C    -1.8249519    4.9754316    2.8408570 
F    -2.5565903    6.0900226    3.0179880 
F    -1.4578133    4.5244143    4.0659189 
F    -0.6756320    5.3277293    2.1948744 
C    -6.1590827    2.8261417    1.4134945 
F    -6.6527836    1.8068468    0.6729560 
F    -6.6200690    2.6817202    2.6757196 
F    -6.6689429    3.9784855    0.9253558 
H     2.4027443   -0.0144850    3.7018809 
C     0.7818396    2.0188104    4.6998390 
C     0.5260393    1.0545419    3.5277022 
C     1.8505170    0.5428081    2.9229214 
C     2.7475769    1.7243488    2.4984939 
C     3.0196462    2.6605944    3.6892970 
C     1.7054501    3.1788955    4.2941511 
H     1.2442314    1.4549760    5.5337390 
H    -0.1811716    2.4074880    5.0734600 
H    -0.0439344    1.5745549    2.7364789 
H    -0.1035679    0.2104878    3.8601627 
H     3.6980594    1.3591081    2.0679181 
H     2.2284456    2.2956707    1.7022916 
H     3.5948010    2.1105889    4.4597085 
H     3.6556249    3.5022904    3.3611368 
H     1.1890998    3.8155569    3.5502089 
H     1.9109927    3.8245960    5.1659866 
H     3.7751987   -0.6795494    0.6218474 
C     4.3788206   -3.2801126   -0.1888831 
C     3.0291660   -2.6624354    0.2121613 
C     3.2199331   -1.4642408    1.1665705 
C     4.0379308   -1.8697314    2.4083073 
C     5.3918364   -2.4747080    1.9846446 
C     5.2023275   -3.6766350    1.0458891 
H     4.9455553   -2.5482719   -0.7906368 
H     4.2025989   -4.1561216   -0.8391416 
H     2.4209087   -3.4292588    0.7276054 
H     2.4634480   -2.3476004   -0.6832410 
H     4.2122231   -0.9993004    3.0661998 
H     3.4735306   -2.6177684    2.9965556 
H     5.9897040   -1.6975833    1.4688661 
H     5.9604133   -2.7682226    2.8853318 
H     4.6820966   -4.4875133    1.5934684 
H     6.1838340   -4.0804739    0.7394383 
