134
Energy =
C    -0.3704672   -0.1012497    3.3013351 
C    -0.5813806    1.2768873    3.1081032 
C    -1.7126973    1.7372503    2.3643748 
H     0.1609081    2.0008025    3.4656864 
Pd   -0.4022832    0.5579367    1.0214478 
P    -1.0648445    1.3487162   -1.0612533 
P     1.0998460   -1.1307546    0.2747581 
H    -1.2259439   -0.7580165    3.0938850 
H    -2.5813338    1.0619102    2.3328825 
C     2.6123142   -1.9441610    5.7920647 
C     1.5638559   -2.7007415    5.2490547 
C     0.6154990   -2.0872550    4.4233506 
C     0.6926316   -0.7075449    4.1129344 
C     1.7655883    0.0363626    4.6578187 
C     2.7067307   -0.5752519    5.4910641 
H     3.3591913   -2.4186084    6.4351531 
H     1.4851075   -3.7692105    5.4721781 
H    -0.2168613   -2.6781113    4.0275001 
H     1.8734150    1.1003076    4.4290788 
H     3.5274532    0.0203368    5.9039679 
C    -2.7370177    5.8901256    1.8603311 
C    -3.7339730    4.9036821    1.8913661 
C    -3.3846254    3.5576072    2.0574566 
C    -2.0331946    3.1677475    2.1920824 
C    -1.0418846    4.1760714    2.1810073 
C    -1.3899421    5.5200764    2.0142862 
H    -3.0065314    6.9427260    1.7271893 
H    -4.7877434    5.1835271    1.7905045 
H    -4.1669531    2.7917682    2.0905410 
H     0.0136672    3.9048518    2.2846549 
H    -0.6066053    6.2851075    2.0004920 
Fe   -2.9998623   -3.5310212    0.2183426 
C    -1.3417125   -2.3945464    0.5709773 
C    -2.1535286   -1.7617070   -0.4684354 
C    -3.4715897   -1.5621575    0.0877530 
H    -4.3234494   -1.1646366   -0.4625460 
C    -3.4806321   -2.0012375    1.4515273 
H    -4.3394743   -1.9948383    2.1253409 
C    -2.1778926   -2.5208117    1.7448114 
H    -1.8714022   -2.9834311    2.6851376 
C    -2.6436499   -5.5349145    0.4516582 
H    -1.7984599   -5.9901454    0.9707677 
C    -2.7089350   -5.2072754   -0.9440949 
H    -1.9207588   -5.3829982   -1.6785207 
C    -4.0003220   -4.6348174   -1.2039831 
H    -4.3692797   -4.2763350   -2.1666394 
C    -4.7294375   -4.6075245    0.0286341 
H    -5.7358646   -4.2090974    0.1694452 
C    -3.8923602   -5.1653172    1.0519843 
H    -4.1509342   -5.2656281    2.1079069 
C    -1.7913275   -1.3478461   -1.8662942 
C    -1.3344656   -0.0449069   -2.2469039 
C    -1.1007753    0.2261592   -3.6141889 
H    -0.7400209    1.2142688   -3.9130904 
C    -1.3151034   -0.7333566   -4.6092088 
H    -1.1163008   -0.4896626   -5.6565070 
C    -1.7673159   -2.0047479   -4.2438937 
H    -1.9258460   -2.7777196   -5.0012609 
C    -1.9916444   -2.2952027   -2.8938569 
H    -2.3353588   -3.2856908   -2.5970557 
C     2.0718146   -1.3643377   -1.3016615 
C     1.5113836   -1.9590326   -2.4486286 
H     0.4636528   -2.2592839   -2.4684033 
C     2.3028734   -2.2061123   -3.5811734 
C     3.6427689   -1.8005517   -3.6269847 
H     4.2581142   -2.0042646   -4.5069458 
C     4.1874149   -1.1551837   -2.5104528 
C     3.4231362   -0.9627599   -1.3540384 
H     3.9086803   -0.4956580   -0.4959488 
C     2.5236429   -1.0612887    1.4377404 
C     3.0505774    0.2220369    1.6647293 
H     2.5456164    1.0999498    1.2441730 
C     4.2214780    0.3873139    2.4159097 
C     4.8522489   -0.7203138    2.9919817 
H     5.7486638   -0.5909078    3.6031572 
C     4.2965924   -1.9960507    2.8064792 
C     3.1499769   -2.1755119    2.0198045 
H     2.7567174   -3.1854516    1.8766384 
C     0.1422941   -2.7361620    0.5816160 
H     0.3987293   -2.9215902    1.6408860 
C     0.5611097   -3.9728413   -0.2317884 
H     0.1414134   -4.8692193    0.2510223 
H     0.1726025   -3.9397141   -1.2598990 
H     1.6581865   -4.0805501   -0.2785615 
C     4.7258407    1.7939727    2.6393550 
F     5.8935740    1.8263383    3.3046729 
F     4.8912818    2.4471318    1.4616376 
F     3.8199227    2.5182539    3.3592608 
C     4.9662246   -3.2002011    3.4370820 
F     4.0794879   -4.2043225    3.6466389 
F     5.9489249   -3.6875223    2.6478787 
F     5.5227120   -2.8861524    4.6303828 
C     1.7167742   -2.9397984   -4.7697881 
F     2.6545942   -3.6704750   -5.4079019 
F     0.7240892   -3.7852307   -4.3898559 
F     1.1882646   -2.0861038   -5.6828496 
C     5.6113813   -0.6396411   -2.5487902 
F     6.1713615   -0.6334657   -1.3163924 
F     6.3909246   -1.3814918   -3.3609366 
F     5.6507672    0.6391929   -3.0098783 
H    -0.1124243    2.8288356   -2.7574640 
C     2.6746346    2.7043910   -2.5696534 
C     1.6053246    1.7424261   -2.0250825 
C     0.2663061    2.4575339   -1.7868057 
C     0.4664567    3.6642466   -0.8420327 
C     1.5443995    4.6257234   -1.3732396 
C     2.8756335    3.9006565   -1.6262016 
H     2.3641394    3.0666813   -3.5695197 
H     3.6210716    2.1549181   -2.7119836 
H     1.9534777    1.3348528   -1.0578740 
H     1.4753015    0.8843549   -2.7056756 
H    -0.4801847    4.2077895   -0.6809340 
H     0.7751841    3.2726820    0.1476102 
H     1.1880643    5.0825689   -2.3173882 
H     1.6799726    5.4540486   -0.6545396 
H     3.2876916    3.5388590   -0.6629732 
H     3.6210825    4.6000467   -2.0439459 
H    -2.4776184    3.1704422   -0.4096300 
C    -5.1561664    2.4308548   -0.9176220 
C    -3.8721778    1.5831325   -0.8615375 
C    -2.6161107    2.4078704   -1.1993214 
C    -2.7789190    3.1255294   -2.5575288 
C    -4.0607897    3.9814592   -2.5775750 
C    -5.3063616    3.1367987   -2.2729139 
H    -5.1253352    3.1933281   -0.1176398 
H    -6.0299952    1.7862421   -0.7115885 
H    -3.9567531    0.7573253   -1.5938885 
H    -3.7567538    1.1198987    0.1338268 
H    -1.9094194    3.7717260   -2.7672937 
H    -2.8345012    2.3735300   -3.3679803 
H    -3.9677517    4.7874306   -1.8233226 
H    -4.1539476    4.4746112   -3.5616643 
H    -5.4417989    2.3811077   -3.0719391 
H    -6.2117666    3.7693489   -2.2779483 
