112
Energy =
C     2.5923700   -0.1099678   -2.4160797 
C     1.6944109    0.8960036   -2.8672722 
C     1.5157706    2.1017226   -2.1547089 
H     1.0648270    0.6834580   -3.7405489 
Pd    0.9709557    0.1784051   -0.8977739 
P    -0.7240330    0.8151613    0.6655064 
P     1.2551559   -1.9646759   -0.0229496 
H     3.4316301    0.2176756   -1.7839475 
H     2.2974792    2.3709483   -1.4290423 
C     3.3417094   -3.7538283   -4.5820985 
C     2.0328699   -3.2493145   -4.5021877 
C     1.7773250   -2.0670877   -3.8002820 
C     2.8226627   -1.3704405   -3.1537004 
C     4.1311984   -1.8920191   -3.2357295 
C     4.3890850   -3.0686521   -3.9496873 
H     3.5412999   -4.6788490   -5.1328169 
H     1.2076641   -3.7826634   -4.9854555 
H     0.7518339   -1.6894524   -3.7336431 
H     4.9512425   -1.3698866   -2.7320502 
H     5.4115709   -3.4560227   -4.0030147 
C    -0.8746090    5.4465130   -3.4248564 
C     0.0694101    5.5867529   -2.3962806 
C     0.8450678    4.4908550   -2.0007454 
C     0.6855486    3.2256573   -2.6127142 
C    -0.2587537    3.1057811   -3.6612118 
C    -1.0260505    4.2032475   -4.0621086 
H    -1.4817211    6.3021983   -3.7371200 
H     0.2071809    6.5557859   -1.9055775 
H     1.5905690    4.6110977   -1.2073289 
H    -0.4112268    2.1416501   -4.1566895 
H    -1.7529295    4.0889851   -4.8728006 
Fe   -1.7132136   -1.2283250    3.5627927 
C    -1.3443283   -0.6265151    1.6191845 
C    -0.5592592   -1.7969864    1.9900404 
C    -1.4774071   -2.8431656    2.3573421 
C    -2.8116398   -2.3381439    2.2566680 
C    -2.7363603   -0.9753829    1.8260975 
C    -2.9252959   -1.2232309    5.2051321 
C    -1.8106999   -2.1063103    5.4016226 
C    -0.6072444   -1.3347421    5.2897482 
C    -0.9767011    0.0241872    5.0180191 
C    -2.4114842    0.0937664    4.9679081 
C     0.9280244   -1.9789966    1.8421127 
H    -1.1912987   -3.8431774    2.6880949 
H    -3.7252009   -2.8795086    2.5090251 
H    -3.5923463   -0.3177894    1.6700174 
H    -3.9786193   -1.5092509    5.2126636 
H    -1.8684245   -3.1813282    5.5820364 
H     0.4078086   -1.7216451    5.3951574 
H    -0.2889266    0.8608085    4.8900813 
H    -3.0107465    0.9888963    4.7953952 
H    -3.0651861    1.4250304    0.6534640 
C    -4.0579233    0.8477510   -1.8965984 
C    -2.7264604    0.4287310   -1.2506146 
C    -2.3006103    1.4239572   -0.1472608 
C    -2.2022196    2.8488472   -0.7245154 
C    -3.5316117    3.2717181   -1.3767998 
C    -3.9793809    2.2759002   -2.4580649 
H    -4.8615378    0.7915595   -1.1358718 
H    -4.3273322    0.1295051   -2.6923416 
H    -1.9292389    0.4130735   -2.0223352 
H    -2.8002751   -0.5954642   -0.8447385 
H    -1.9274800    3.5770731    0.0555629 
H    -1.4007951    2.8752409   -1.4775706 
H    -4.3153058    3.3448278   -0.5966045 
H    -3.4151155    4.2819919   -1.8079959 
H    -3.2508652    2.2973373   -3.2918454 
H    -4.9544179    2.5787003   -2.8798710 
H     0.3335206    1.4532191    2.6820205 
C    -0.9321732    3.6573021    3.8099043 
C    -1.4154792    2.7041641    2.7004420 
C    -0.2184861    2.0789578    1.9551596 
C     0.7467559    3.1452185    1.4033537 
C     1.2031334    4.1044450    2.5176845 
C     0.0047015    4.7377147    3.2445629 
H    -0.3938921    3.0812769    4.5880619 
H    -1.8036822    4.1184322    4.3082633 
H    -2.0400309    3.2796336    1.9943647 
H    -2.0469236    1.8988559    3.1103455 
H     1.6197208    2.6508325    0.9371455 
H     0.2455551    3.7193011    0.6030944 
H     1.8180810    3.5425808    3.2486357 
H     1.8564080    4.8873501    2.0914533 
H    -0.5593452    5.3740660    2.5338969 
H     0.3560037    5.4024043    4.0535382 
H     1.1855217   -2.9928693    2.1947812 
C     1.8130268   -0.9514148    2.5680164 
H     1.4113123   -0.7769112    3.5777484 
H     2.8492381   -1.3132588    2.6587494 
H     1.8332055    0.0166400    2.0357402 
C    -1.9364287   -4.9746002   -1.5494488 
C    -1.0015037   -5.3894738   -0.5871714 
C    -0.0162358   -4.5032053   -0.1339703 
C     0.0487119   -3.1909742   -0.6515313 
C    -0.8970156   -2.7821575   -1.6099271 
C    -1.8858049   -3.6689579   -2.0578146 
H    -2.7069053   -5.6700246   -1.8981815 
H    -1.0434397   -6.4066800   -0.1840840 
H     0.6979683   -4.8357277    0.6271484 
H    -0.8605455   -1.7560735   -1.9909673 
H    -2.6181438   -3.3372763   -2.8011290 
C     5.5491484   -3.7273666   -0.3875027 
C     5.3341801   -2.4451261    0.1425156 
C     4.0352071   -1.9288954    0.2246832 
C     2.9293649   -2.6984716   -0.2022605 
C     3.1569902   -3.9688235   -0.7663839 
C     4.4611012   -4.4779546   -0.8525639 
H     6.5648284   -4.1304743   -0.4543916 
H     6.1811380   -1.8414220    0.4848964 
H     3.8816425   -0.9144232    0.6084708 
H     2.3253980   -4.5542087   -1.1673215 
H     4.6237777   -5.4636023   -1.3002491 
