122
Energy =
C     0.0968671   -2.8157662    1.5590932 
C     0.5975375   -2.0664433    2.6541117 
C    -0.2304112   -1.1346025    3.3292146 
H     1.6597393   -2.1450700    2.9159108 
Pd    0.0763421   -0.5761009    1.1119778 
P    -0.0384484    1.7569202    1.4959842 
P     0.2583345   -0.7937248   -1.2165036 
H    -0.9940511   -2.9534839    1.5093641 
H    -1.3146996   -1.2653779    3.2015451 
C     2.2972686   -5.7581183   -0.6767630 
C     2.9745617   -4.6572378   -0.1253390 
C     2.2752374   -3.7017530    0.6179542 
C     0.8791506   -3.8144999    0.8086027 
C     0.2141828   -4.9362990    0.2656906 
C     0.9183361   -5.9023017   -0.4632679 
H     2.8411482   -6.4996565   -1.2701608 
H     4.0529410   -4.5384699   -0.2733619 
H     2.8225940   -2.8568125    1.0441353 
H    -0.8651939   -5.0438338    0.4174713 
H     0.3858728   -6.7597761   -0.8857842 
C     0.7749104    0.9817168    6.9281459 
C    -0.5399869    0.9839746    6.4401897 
C    -0.8463534    0.3142432    5.2503103 
C     0.1560925   -0.3685119    4.5220863 
C     1.4820714   -0.3415259    5.0153441 
C     1.7837207    0.3193998    6.2082135 
H     1.0158045    1.4949488    7.8647800 
H    -1.3322675    1.4988103    6.9932268 
H    -1.8770903    0.3078391    4.8817548 
H     2.2855949   -0.8433546    4.4684539 
H     2.8135433    0.3226261    6.5785195 
Fe   -3.2075414    2.1974359   -2.5562590 
C    -1.7644282    1.0705220   -1.6887776 
C    -1.8725283    2.3515841   -1.0041749 
C    -3.2336476    2.4874532   -0.5457165 
H    -3.6235258    3.3463278    0.0024525 
C    -3.9533438    1.3000975   -0.8947806 
H    -5.0092600    1.1081782   -0.6965328 
C    -3.0602654    0.4302291   -1.6040752 
H    -3.3359772   -0.5235828   -2.0565691 
C    -3.0593063    1.9921568   -4.5857484 
H    -2.4387860    1.2681577   -5.1179093 
C    -2.6643692    3.3148029   -4.1936442 
H    -1.6974959    3.7786040   -4.3976485 
C    -3.7703045    3.9250646   -3.5088905 
H    -3.7930189    4.9291964   -3.0811209 
C    -4.8498380    2.9808211   -3.4851938 
H    -5.8256259    3.1335945   -3.0206883 
C    -4.4115018    1.7870915   -4.1510560 
H    -4.9956143    0.8737741   -4.2789195 
C    -0.7821485    3.3337398   -0.7534362 
C     0.1993588    3.1141410    0.2532878 
C     1.2675426    4.0248910    0.3919516 
H     2.0294209    3.8622667    1.1585099 
C     1.3547993    5.1620809   -0.4227218 
H     2.1950002    5.8529614   -0.2995157 
C     0.3503389    5.4212016   -1.3625631 
H     0.3889574    6.3233364   -1.9817083 
C    -0.7023198    4.5110927   -1.5190954 
H    -1.4819130    4.6864961   -2.2625325 
C     2.0035466   -0.9343014   -1.7696915 
C     3.0064741   -0.8233732   -0.7945462 
H     2.7159239   -0.6458591    0.2466474 
C     4.3586578   -0.9527991   -1.1389096 
C     4.7308111   -1.1923672   -2.4680472 
H     5.7833255   -1.3000144   -2.7404384 
C     3.7320348   -1.2860523   -3.4483898 
C     2.3791260   -1.1489930   -3.1091703 
H     1.6271611   -1.2120959   -3.9018202 
C    -0.5466028   -2.3594971   -1.7726577 
C     0.0251379   -3.3073237   -2.6401312 
H     1.0427134   -3.1943852   -3.0192062 
C    -0.6897086   -4.4618037   -2.9880855 
C    -1.9784791   -4.6930198   -2.4849167 
H    -2.5249896   -5.6026924   -2.7462347 
C    -2.5328591   -3.7620490   -1.5989226 
C    -1.8207278   -2.6112869   -1.2367204 
H    -2.2543776   -1.9167609   -0.5096486 
C    -0.5531214    0.4920581   -2.3799520 
H    -0.9164136   -0.1132336   -3.2288367 
C     0.4592437    1.5303284   -2.8992084 
H    -0.1017026    2.3527050   -3.3703139 
H     1.0760736    1.9602665   -2.0946569 
H     1.1332304    1.0939926   -3.6517528 
C    -0.0592869   -5.4855598   -3.9109967 
F     1.2891536   -5.3703751   -3.9370950 
F    -0.3571563   -6.7471851   -3.5142767 
F    -0.5056901   -5.3468970   -5.1789804 
C    -3.8601356   -4.0075357   -0.9207177 
F    -4.6603336   -2.9131902   -0.9959638 
F    -4.5276345   -5.0510515   -1.4423373 
F    -3.6687237   -4.2576629    0.4069709 
C     5.3877614   -0.8582150   -0.0353045 
F     6.6481229   -0.9466445   -0.4905461 
F     5.2684177    0.3163555    0.6426809 
F     5.2054497   -1.8501892    0.8807843 
C     4.0744421   -1.5647290   -4.8978023 
F     3.5103271   -0.6373755   -5.7096559 
F     5.4026909   -1.5641598   -5.1190115 
F     3.5861132   -2.7718390   -5.2749503 
C     3.4931297    2.7259232    4.3682498 
C     3.6823977    1.9507029    3.2138854 
C     2.5893357    1.6476786    2.3925614 
C     1.2979863    2.1248501    2.7079563 
C     1.1126347    2.8851121    3.8767029 
C     2.2090485    3.1813487    4.6997200 
H     4.3441065    2.9656194    5.0141102 
H     4.6767596    1.5810619    2.9450955 
H     2.7485900    1.0592828    1.4833533 
H     0.1163402    3.2345073    4.1593245 
H     2.0520765    3.7663837    5.6114662 
C    -4.1352762    3.0175479    3.3047322 
C    -3.1281685    3.9791978    3.1201922 
C    -1.8879945    3.6071041    2.5846455 
C    -1.6390504    2.2591410    2.2489885 
C    -2.6626714    1.3072893    2.4111111 
C    -3.9048426    1.6828009    2.9403113 
H    -5.1050712    3.3134651    3.7180448 
H    -3.3124776    5.0252967    3.3858557 
H    -1.1197912    4.3680627    2.4094086 
H    -2.4942668    0.2755234    2.0847414 
H    -4.6967982    0.9354369    3.0545318 
