132
Energy =
C     2.2355058   -1.6002438   -2.3208900 
C     2.2544258   -0.1918921   -2.4274152 
C     2.6985206    0.6386473   -1.3546405 
H     1.8005378    0.2769295   -3.3103907 
Pd    0.9422393   -0.5572441   -0.7068309 
P     0.4489884    0.6815676    1.2001771 
P    -1.0820347   -1.7859825   -0.4855438 
H     2.9036217   -2.0562922   -1.5739619 
H     3.4728785    0.2373572   -0.6851691 
C     1.1057394   -4.2460611   -5.5223524 
C     0.4640436   -3.0028310   -5.3890667 
C     0.8099348   -2.1387116   -4.3448806 
C     1.8034359   -2.5004402   -3.4060105 
C     2.4293024   -3.7606292   -3.5437260 
C     2.0906214   -4.6203091   -4.5960112 
H     0.8362532   -4.9193279   -6.3423892 
H    -0.3094021   -2.7061335   -6.1053419 
H     0.2982134   -1.1763720   -4.2476281 
H     3.1991477   -4.0596755   -2.8232638 
H     2.5943258   -5.5877402   -4.6900925 
C     2.5178610    4.9441876   -1.5115467 
C     1.5693033    4.1781103   -2.2100835 
C     1.6195561    2.7809542   -2.1640748 
C     2.6211499    2.1140240   -1.4185420 
C     3.5689618    2.8974424   -0.7267043 
C     3.5186569    4.2961181   -0.7745711 
H     2.4773466    6.0377535   -1.5470048 
H     0.7852925    4.6740141   -2.7924922 
H     0.8591000    2.1994556   -2.6975262 
H     4.3508850    2.4013434   -0.1431485 
H     4.2657222    4.8817709   -0.2303481 
Fe    1.3497835   -2.2033693    2.8308171 
C     0.1939914   -0.5504248    2.5025242 
C    -0.5807517   -1.7770062    2.3698559 
C    -0.4897787   -2.4594638    3.6382420 
C     0.3329984   -1.6948381    4.5260327 
C     0.7637933   -0.5216871    3.8313115 
C     2.1841092   -3.3098433    1.3181558 
C     3.0635974   -2.2396457    1.6858441 
C     3.3773870   -2.3730987    3.0789778 
C     2.6951783   -3.5367263    3.5713557 
C     1.9568438   -4.1158220    2.4827164 
C    -1.0796101    1.6862646    1.1579247 
C    -1.2353792    2.6462639    0.1372565 
C    -2.4170408    3.3935730    0.0270066 
C    -3.4681450    3.1257359    0.9378139 
C    -3.3400246    2.1651132    1.9672999 
C    -2.1216449    1.4697209    2.0754125 
C     1.7310804    1.8128348    1.8653507 
C     2.9896477    1.2813768    2.2111805 
C     4.0038343    2.0938763    2.7344224 
C     3.7435788    3.4773577    2.8850668 
C     2.4922531    4.0382732    2.5482791 
C     1.4941256    3.1859967    2.0410624 
C    -1.5265958   -2.2696789    1.2897166 
H    -0.9574742   -3.4200677    3.8663845 
H     0.6137152   -1.9748778    5.5429215 
H     1.4123320    0.2629576    4.2225002 
H     1.7635152   -3.4711270    0.3281811 
H     3.4268747   -1.4640197    1.0105305 
H     4.0089559   -1.7047587    3.6669215 
H     2.7159306   -3.9039210    4.5990001 
H     1.3229478   -5.0027954    2.5393936 
H    -0.4254730    2.8130016   -0.5810946 
H    -1.9987559    0.7318291    2.8753956 
H     3.1641508    0.2095585    2.1019689 
H     0.5180136    3.6139673    1.7940434 
H    -1.3935622   -3.3671368    1.2681311 
H    -1.2793193   -3.0811016   -2.4848295 
H    -2.3260406    0.2502827   -0.4293470 
C    -4.6340853    0.2695978   -1.8623411 
C    -3.8159204   -0.9597445   -1.4175432 
C    -2.3424817   -0.5582188   -1.1841901 
C    -1.7670282    0.0192086   -2.5031238 
C    -2.5938048    1.2062566   -3.0244744 
C    -4.0824852    0.8582831   -3.1694382 
H    -4.6041294    1.0376015   -1.0641798 
H    -5.6929344   -0.0201105   -1.9861259 
H    -3.8672935   -1.7232948   -2.2160943 
H    -4.2683460   -1.3991833   -0.5168121 
H    -0.7170539    0.3348281   -2.3384089 
H    -1.7461078   -0.7831612   -3.2661795 
H    -2.4858240    2.0424838   -2.3126655 
H    -2.1764100    1.5498358   -3.9887875 
H    -4.2115510    0.1178351   -3.9835526 
H    -4.6568096    1.7551628   -3.4634969 
C    -2.7705338   -5.3891853   -2.0550014 
C    -2.6504310   -4.1389076   -1.1612264 
C    -1.3157210   -3.3983131   -1.4233043 
C    -0.1417238   -4.3683969   -1.1788812 
C    -0.2557462   -5.6227410   -2.0623313 
C    -1.5908468   -6.3491665   -1.8431510 
H    -2.8033039   -5.0718250   -3.1157998 
H    -3.7292257   -5.8970276   -1.8460425 
H    -2.6836208   -4.4590021   -0.1015152 
H    -3.5165680   -3.4820150   -1.3236436 
H     0.8129481   -3.8563244   -1.3768538 
H    -0.1391860   -4.6729181   -0.1129494 
H    -0.1705539   -5.3158728   -3.1212101 
H     0.5965475   -6.2961977   -1.8597896 
H    -1.6280871   -6.7500620   -0.8106273 
H    -1.6730682   -7.2166383   -2.5220165 
C    -2.9931614   -1.9885695    1.6935430 
H    -3.2418420   -0.9197948    1.6006086 
H    -3.6960150   -2.5691799    1.0762465 
H    -3.1434207   -2.2813507    2.7468341 
C    -2.6066803    4.4348075   -1.0504991 
H    -3.5445412    4.2579019   -1.6043528 
H    -2.6812079    5.4480363   -0.6155243 
H    -1.7621709    4.4317363   -1.7577315 
C    -4.4897298    1.8764683    2.9039733 
H    -4.4754068    2.5513918    3.7801788 
H    -5.4534470    2.0206499    2.3884733 
H    -4.4373558    0.8436202    3.2862281 
O    -4.6687995    3.7702026    0.7408807 
C    -4.9242344    4.9176380    1.5654018 
H    -5.8993526    5.3145793    1.2467450 
H    -4.9705801    4.6472689    2.6366309 
H    -4.1460178    5.6910132    1.4228080 
C     5.3439128    1.5323806    3.1460466 
H     5.5597076    1.7705093    4.2019820 
H     5.3749914    0.4387035    3.0125981 
H     6.1645206    1.9721081    2.5509189 
C     2.2259736    5.5122561    2.7400429 
H     2.4947491    6.0831263    1.8308563 
H     1.1575636    5.6975136    2.9385651 
H     2.8204828    5.9112061    3.5779604 
O     4.7296163    4.2546255    3.4530678 
C     5.5245846    5.0369076    2.5540346 
H     6.2993645    5.5213347    3.1666089 
H     6.0073499    4.3984366    1.7890091 
H     4.9233565    5.8153220    2.0473655 
