124
Energy =
C     2.7974807    1.0619286    1.3367863 
C     3.3412370    0.5323674    0.1433462 
C     2.9125415    1.0255404   -1.1288129 
H     3.9905955   -0.3516814    0.1803268 
Pd    1.1892226    0.1312690   -0.0057065 
P    -0.3371116    0.0355210   -1.7453128 
P    -0.1728569   -0.7506826    1.6616205 
H     2.3219878    2.0514129    1.2544833 
H     2.5996236    2.0789356   -1.1704115 
C     3.7653045    0.0705699    5.4025440 
C     2.9161886    1.1471019    5.1071020 
C     2.5998624    1.4428614    3.7769542 
C     3.1255052    0.6710842    2.7139125 
C     3.9639617   -0.4225471    3.0294898 
C     4.2827985   -0.7137004    4.3585517 
H     4.0212337   -0.1606812    6.4416790 
H     2.5037457    1.7614272    5.9140922 
H     1.9388300    2.2866239    3.5501091 
H     4.3787027   -1.0457972    2.2316728 
H     4.9390405   -1.5604410    4.5833388 
C     4.4401220   -0.5340429   -4.8342611 
C     4.1238488   -1.4137849   -3.7855890 
C     3.6045804   -0.9200400   -2.5855854 
C     3.3938698    0.4668730   -2.4065599 
C     3.6793270    1.3356413   -3.4829855 
C     4.2095038    0.8406226   -4.6813424 
H     4.8482282   -0.9227680   -5.7727966 
H     4.2672982   -2.4918422   -3.9107612 
H     3.3297355   -1.6172172   -1.7860640 
H     3.5042753    2.4112424   -3.3662706 
H     4.4418346    1.5311294   -5.4989302 
Fe   -3.6565482    0.0158643   -0.6428064 
C    -1.9250184   -0.7759530   -1.3504892 
C    -2.3521444   -1.4527442   -0.1241325 
C    -3.6672761   -1.9893500   -0.3870285 
C    -4.0535511   -1.6670679   -1.7253445 
C    -2.9923604   -0.9181070   -2.3188816 
C    -5.3963561    1.0550007   -0.8457601 
C    -5.2188553    0.6287320    0.5147464 
C    -3.9928384    1.1930588    0.9992482 
C    -3.4124200    1.9662026   -0.0602797 
C    -4.2795560    1.8838156   -1.2012792 
C    -1.6416835   -1.8403742    1.1641734 
H    -4.2727041   -2.5394418    0.3368657 
H    -5.0048019   -1.9161127   -2.1984510 
H    -2.9798199   -0.5329766   -3.3386807 
H    -6.2251226    0.7791530   -1.5005409 
H    -5.8884256   -0.0293516    1.0719076 
H    -3.5693792    1.0521068    1.9927336 
H    -2.4708542    2.5122557   -0.0121424 
H    -4.1162832    2.3623027   -2.1669903 
H    -2.3635962   -1.6562526    1.9799162 
C    -1.3277925   -3.3542788    1.1772294 
H    -0.6070804   -3.6337841    0.3953962 
H    -0.9270691   -3.6731110    2.1523649 
H    -2.2577539   -3.9137087    0.9827011 
C     2.2887426   -3.4524378    4.6231920 
C     1.4414929   -2.4326480    5.0960449 
C     0.7284143   -1.6270509    4.2078554 
C     0.8254562   -1.8041265    2.8098375 
C     1.7261280   -2.7856312    2.3096421 
C     2.4163389   -3.5948900    3.2335338 
H     1.3457805   -2.2557319    6.1729953 
H     0.1006512   -0.8314656    4.6145540 
H     3.1000595   -4.3579623    2.8411328 
C    -2.2283451    2.6164680    4.0978925 
C    -2.4955209    1.2779825    4.4605625 
C    -1.8715823    0.2507578    3.7332969 
C    -0.9774717    0.5491965    2.6802354 
C    -0.7354810    1.8898657    2.3474702 
C    -1.3632949    2.9431893    3.0418037 
H    -2.7238273    3.4242654    4.6497617 
H    -2.0947805   -0.7901651    3.9944276 
H    -0.0625692    2.1143435    1.5129934 
C     3.0691806   -4.3187376    5.5829933 
H     3.6206474   -5.1158551    5.0587605 
H     3.8009419   -3.7105772    6.1469825 
H     2.4016392   -4.7902356    6.3258409 
C     2.0187026   -3.0131238    0.8411759 
H     3.1079818   -2.9859719    0.6612840 
H     1.6617820   -4.0010793    0.5021044 
H     1.5579782   -2.2458208    0.1897978 
C    -3.4435459    0.9682214    5.5972607 
H    -4.4327494    1.4278012    5.4225652 
H    -3.5861143   -0.1174053    5.7227142 
H    -3.0606210    1.3753492    6.5505285 
C    -1.1184953    4.3758869    2.6236497 
H    -1.6060970    5.0892731    3.3068745 
H    -0.0377068    4.6048869    2.6005088 
H    -1.5126911    4.5546060    1.6059089 
C     1.2446898   -1.9199018   -5.6937549 
C     1.1396455   -0.5471931   -5.5728476 
C     0.6544061    0.0312592   -4.3739312 
C     0.2486194   -0.7605523   -3.2995717 
H     1.6185761   -2.3705521   -6.6193572 
H     1.4391674    0.1080140   -6.3962907 
H     0.6011377    1.1204713   -4.3053847 
C     0.3999487   -2.1920988   -3.3802123 
C     0.8974787   -2.7714272   -4.6054956 
C     1.0558665   -4.1858830   -4.6935480 
C     0.7551567   -5.0088693   -3.6207565 
C     0.2785079   -4.4412000   -2.4115237 
C     0.1049244   -3.0706830   -2.3005156 
H     1.4283411   -4.6126315   -5.6313026 
H     0.8834526   -6.0929778   -3.7027423 
H     0.0400101   -5.0911090   -1.5625178 
H    -0.2684595   -2.6502662   -1.3652655 
C    -1.5902691    2.0428116   -3.3162282 
C    -0.7675132    1.7620076   -2.2290168 
C    -0.2775459    2.8428054   -1.4363018 
C    -0.6270659    4.1520021   -1.7179277 
H    -1.9620136    1.2378090   -3.9571088 
H     0.3755592    2.6173034   -0.5860725 
H    -0.2460834    4.9681909   -1.0940250 
C    -1.4831818    4.4610563   -2.8150386 
C    -1.9666024    3.3778202   -3.6362682 
C    -2.8235880    3.6729025   -4.7386165 
C    -3.1899096    4.9793561   -5.0156971 
C    -2.7126060    6.0467116   -4.2061886 
C    -1.8765846    5.7939625   -3.1306171 
H    -3.1887393    2.8488846   -5.3617004 
H    -3.8492262    5.1964981   -5.8623231 
H    -3.0099529    7.0744417   -4.4386003 
H    -1.5083973    6.6170551   -2.5085287 
