122
Energy =
C     0.6077220   -0.7956888   -3.5942579 
C     0.7245218    0.6034780   -3.4372911 
C     1.7506584    1.1802855   -2.6301317 
H    -0.0658742    1.2584951   -3.8264221 
Pd    0.4582009   -0.1080187   -1.3657352 
P     1.0480946    0.8500408    0.6918690 
P    -0.9263752   -1.8452503   -0.5308583 
H     1.4835071   -1.4075531   -3.3327360 
H     2.7003373    0.6291900   -2.5505935 
C    -2.3855083   -2.8633121   -5.8840232 
C    -1.4898402   -3.5731134   -5.0701720 
C    -0.5044676   -2.8915655   -4.3486461 
C    -0.4097423   -1.4813412   -4.4070155 
C    -1.3042548   -0.7802089   -5.2512646 
C    -2.2790720   -1.4657964   -5.9822735 
H    -3.1543456   -3.3965026   -6.4523901 
H    -1.5556234   -4.6635162   -4.9992229 
H     0.1918639   -3.4524371   -3.7183687 
H    -1.2323368    0.3078764   -5.3489497 
H    -2.9564564   -0.9091760   -6.6381841 
C     2.0614046    5.4225613   -1.9626418 
C     0.8042547    4.7967728   -1.9115873 
C     0.6959883    3.4192959   -2.1321922 
C     1.8444437    2.6384233   -2.3975894 
C     3.1013474    3.2770468   -2.4435162 
C     3.2054563    4.6592024   -2.2361332 
H     2.1506605    6.4969506   -1.7757252 
H    -0.0927914    5.3869575   -1.6947821 
H    -0.2828901    2.9288955   -2.0729599 
H     4.0016582    2.6848869   -2.6377887 
H     4.1875473    5.1405286   -2.2681588 
Fe   -3.5060371    2.0506546    1.5085394 
C    -1.6494459    1.6064671    0.7770153 
C    -2.3803515    0.3878655    1.0879597 
C    -3.6073100    0.4190312    0.3272212 
H    -4.3823701   -0.3467404    0.3553774 
C    -3.6263433    1.6107541   -0.4663714 
H    -4.4343420    1.9236325   -1.1298591 
C    -2.4267404    2.3429280   -0.1897740 
H    -2.1582326    3.3187599   -0.6001890 
C    -3.5872224    2.6123974    3.4882002 
H    -2.8651404    2.4036415    4.2791417 
C    -4.7194902    1.7999143    3.1422708 
H    -4.9956333    0.8476946    3.5988930 
C    -5.4240556    2.4533490    2.0784482 
H    -6.3168503    2.0775135    1.5752124 
C    -4.7260057    3.6670203    1.7629020 
H    -4.9983024    4.3783133    0.9808619 
C    -3.5902587    3.7653418    2.6332589 
H    -2.8658712    4.5818859    2.6433979 
C    -1.8951666   -0.7622675    1.9039330 
C    -1.2235184   -1.8624531    1.2929629 
C    -0.7616840   -2.9311245    2.0860407 
H    -0.2205572   -3.7605156    1.6196903 
C    -0.9685046   -2.9322988    3.4727324 
H    -0.5920506   -3.7620022    4.0785945 
C    -1.6408338   -1.8634487    4.0792075 
H    -1.7957389   -1.8542345    5.1622560 
C    -2.0959407   -0.7941835    3.2963204 
H    -2.6225831    0.0459144    3.7555623 
C     1.5436876   -0.4052664    1.9634929 
C     2.2488016   -1.5195687    1.4737987 
H     2.4107120   -1.6330462    0.3996187 
C     2.7390740   -2.5023253    2.3426462 
C     2.5196375   -2.4004692    3.7210125 
H     2.8877679   -3.1745743    4.4000570 
C     1.8009656   -1.3017108    4.2108038 
C     1.3286997   -0.3026949    3.3493625 
H     0.7815213    0.5315281    3.7802309 
C     2.5895529    1.8802615    0.6685041 
C     3.7822319    1.2527209    0.2662683 
H     3.7964534    0.1902025    0.0055620 
C     4.9756978    1.9803479    0.1766789 
C     5.0080157    3.3411288    0.5043746 
H     5.9399793    3.9069990    0.4272248 
C     3.8192488    3.9696516    0.8980082 
C     2.6167924    3.2530694    0.9723597 
H     1.7132143    3.7981937    1.2493377 
C    -0.2855784    2.0438527    1.2699344 
H    -0.0148668    2.9105236    0.6376999 
C    -0.2368493    2.4879898    2.7441908 
H    -0.7184346    1.7400321    3.3903881 
H     0.7921998    2.6676950    3.0990507 
H    -0.8047289    3.4251261    2.8451929 
C     6.1971843    1.2950199   -0.3947919 
F     7.3372144    1.9456260   -0.0980075 
F     6.3065625    0.0211451    0.0470440 
F     6.1036152    1.2317388   -1.7550095 
C     3.8446603    5.4443118    1.2440204 
F     2.5989727    5.9792069    1.2561811 
F     4.3894808    5.6548786    2.4622490 
F     4.5811927    6.1445177    0.3473453 
C     3.4174169   -3.7300692    1.7778510 
F     2.5134820   -4.7251923    1.5674820 
F     4.0064540   -3.4703216    0.5825853 
F     4.3587665   -4.2150438    2.6101359 
C     1.5156935   -1.2208067    5.6962608 
F     2.6444823   -1.0364902    6.4117693 
F     0.6658091   -0.2083115    5.9929089 
F     0.9438617   -2.3712428    6.1376426 
C     1.1342829   -5.8826785   -1.6601564 
C    -0.2369859   -5.8685565   -1.3616102 
C    -0.8724771   -4.6730910   -0.9995224 
C    -0.1401694   -3.4693050   -0.9315934 
C     1.2341362   -3.4967002   -1.2436741 
C     1.8713109   -4.6919624   -1.5997385 
H     1.6256381   -6.8193333   -1.9423844 
H    -0.8197668   -6.7939608   -1.4144519 
H    -1.9450888   -4.6821767   -0.7909144 
H     1.8076361   -2.5634062   -1.2326113 
H     2.9421371   -4.6899665   -1.8232756 
C    -5.2207938   -2.1528208   -2.2862004 
C    -4.8860358   -2.8830682   -1.1338439 
C    -3.5958117   -2.7940147   -0.5946100 
C    -2.6272087   -1.9757314   -1.2149200 
C    -2.9768454   -1.2274730   -2.3510308 
C    -4.2663156   -1.3216035   -2.8901981 
H    -6.2301335   -2.2246224   -2.7045655 
H    -5.6346407   -3.5175341   -0.6480063 
H    -3.3549127   -3.3326323    0.3284898 
H    -2.2441905   -0.5508612   -2.7968908 
H    -4.5239173   -0.7383520   -3.7798209 
