94
Energy =
C     1.1470491    2.4304824    1.7712815 
C    -0.0670944    1.7930973    1.8254198 
C    -0.2118298    0.4018917    2.2357935 
H    -0.9718065    2.3288553    1.5152042 
Pd    0.0741894   -0.3405253    0.2664486 
P    -1.8490342   -0.0364492   -0.9754244 
P     2.2371356   -1.1097566    0.2760336 
H     2.0306784    1.8534370    2.0717661 
H     0.6589301   -0.0076708    2.7672368 
C     2.0598160    6.3373526    0.2518424 
C     0.7180052    5.9800782    0.4761462 
C     0.3977074    4.7185183    0.9834960 
C     1.4163976    3.7745281    1.2781152 
C     2.7646870    4.1580539    1.0585817 
C     3.0813302    5.4212009    0.5479940 
H     2.3058138    7.3288748   -0.1419709 
H    -0.0813880    6.6980270    0.2636195 
H    -0.6515488    4.4674737    1.1708091 
H     3.5625598    3.4413464    1.2867018 
H     4.1285625    5.6956253    0.3830344 
C    -3.9079533   -1.3852784    3.5402527 
C    -2.6782211   -2.0227767    3.7734637 
C    -1.4881960   -1.4272237    3.3451273 
C    -1.4983770   -0.1811484    2.6714041 
C    -2.7480533    0.4451872    2.4399071 
C    -3.9361665   -0.1513277    2.8704251 
H    -4.8410653   -1.8457653    3.8808648 
H    -2.6481813   -2.9825886    4.2999874 
H    -0.5287938   -1.9246864    3.5273545 
H    -2.7940313    1.4049720    1.9161432 
H    -4.8917365    0.3470568    2.6814427 
Fe    0.8596229   -1.1277128   -2.8190902 
C    -1.1647679   -1.0588052   -2.3315501 
C    -0.6191090   -2.3886960   -2.1329872 
H    -0.6086742   -2.9390285   -1.1901685 
C    -0.1072016   -2.8424800   -3.3870297 
H     0.3764155   -3.8036806   -3.5701898 
C    -0.3005801   -1.7977046   -4.3536834 
H     0.0061367   -1.8304573   -5.4008893 
C    -0.9409484   -0.6918319   -3.7035493 
C     2.4331626   -0.7949504   -1.5056748 
C     2.0169343    0.4397925   -2.1492749 
H     1.6814986    1.3435050   -1.6367239 
C     2.1695774    0.2686841   -3.5589826 
H     1.9381813    1.0147501   -4.3211394 
C     2.6459617   -1.0650363   -3.7988131 
H     2.8397298   -1.5079293   -4.7774638 
C     2.7991017   -1.7282573   -2.5367491 
H    -1.2187405    0.2593675   -4.1592238 
H     3.1315436   -2.7546235   -2.3735870 
C    -2.1149050    1.5900494   -1.6830356 
C    -1.3558704    2.7358836   -1.5538154 
C    -1.9473404    3.7159099   -2.4096683 
C    -3.0318177    3.1151932   -3.0141247 
H    -0.4769882    2.8531613   -0.9192746 
H    -1.6174544    4.7442298   -2.5573456 
O    -3.1366322    1.8174006   -2.5852168 
C    -4.0630409    3.5850487   -3.9811921 
H    -5.0724525    3.5472121   -3.5330348 
H    -3.8512585    4.6226503   -4.2799784 
H    -4.0763913    2.9505849   -4.8852702 
C    -3.4887168   -0.6774096   -0.6057421 
C    -4.7800366   -0.1955463   -0.6720026 
C    -5.6122113   -1.2074191   -0.0992928 
C    -4.7850724   -2.2443303    0.2794758 
H    -5.0831977    0.7621180   -1.0927727 
H    -6.6963184   -1.1811481    0.0131310 
O    -3.4881117   -1.9249163   -0.0209466 
C    -5.0187750   -3.5832419    0.8874075 
H    -4.7768300   -4.3906674    0.1720721 
H    -4.3841740   -3.7205928    1.7800733 
H    -6.0747748   -3.6830579    1.1807309 
C     3.6293821   -0.2588069    1.0369461 
C     4.7091710    0.4379559    0.5356928 
C     5.3423517    1.0617280    1.6579856 
C     4.6123231    0.7180522    2.7759362 
H     5.0043557    0.4922745   -0.5124072 
H     6.2368495    1.6847550    1.6465574 
C     2.5588246   -2.8644305    0.5144109 
C     3.6783426   -3.6094536    0.8226792 
C     3.2501359   -4.9721109    0.8909688 
C     1.8973600   -4.9814479    0.6233730 
H     4.6833203   -3.2169637    0.9804312 
H     3.8641073   -5.8448266    1.1144957 
O     3.5601747   -0.0813923    2.4047778 
O     1.4662879   -3.7011758    0.3993043 
C     4.7365702    1.0305938    4.2266428 
H     3.8380939    1.5566017    4.5967723 
H     4.8529607    0.1071295    4.8216050 
H     5.6144052    1.6717707    4.3969087 
C     0.8693530   -6.0564785    0.5403002 
H     0.0619607   -5.8893296    1.2759148 
H     0.4067738   -6.0870743   -0.4630722 
H     1.3320371   -7.0342500    0.7418670 
