112
Energy =
C     0.0547030    2.1829970    3.0341579 
C    -0.4654252    3.0391999    2.0258942 
C    -1.7192405    2.7846288    1.4194378 
H     0.1740168    3.8282081    1.6124685 
Pd   -0.3046857    1.0184467    1.1306397 
P    -1.0686678    0.0978891   -0.8619919 
P     0.7672756   -0.9914044    1.7020194 
H    -0.6663113    1.6192963    3.6429969 
H    -2.4090430    2.1243698    1.9675806 
C     3.9515278    2.5191305    4.8364848 
C     2.9477274    1.7403659    5.4307896 
C     1.6799379    1.6553120    4.8430567 
C     1.3904134    2.3367954    3.6390818 
C     2.4117319    3.1247113    3.0534480 
C     3.6741748    3.2176513    3.6485201 
H     4.9424214    2.5881419    5.2969112 
H     3.1498759    1.1955032    6.3586945 
H     0.9009338    1.0476095    5.3150097 
H     2.2272139    3.6553457    2.1135262 
H     4.4495590    3.8333845    3.1806254 
C    -3.7568413    5.2157646   -1.4775648 
C    -4.3697364    4.0766402   -0.9352564 
C    -3.6828617    3.2878562   -0.0075030 
C    -2.3655486    3.6126943    0.3926836 
C    -1.7532038    4.7516799   -0.1813719 
C    -2.4468052    5.5490002   -1.0963145 
H    -4.2959664    5.8416661   -2.1959732 
H    -5.3876328    3.8055173   -1.2326757 
H    -4.1709886    2.4079593    0.4257188 
H    -0.7341121    5.0319869    0.1035835 
H    -1.9636410    6.4368153   -1.5166925 
Fe   -0.0392839   -3.9897832   -0.3371086 
C    -0.0861175   -2.4837865    1.0745507 
C    -1.3105910   -2.5261805    0.2837051 
C    -1.8876656   -3.8363379    0.4645005 
C    -1.0387182   -4.6054393    1.3246492 
C     0.0782083   -3.7901365    1.6839269 
C     1.6936269   -4.8282956   -1.0530487 
C     0.6237394   -5.7827166   -1.0533192 
C    -0.4303650   -5.2649133   -1.8783619 
C    -0.0132042   -3.9892125   -2.3825778 
C     1.2980779   -3.7142639   -1.8699370 
C     0.6213160   -1.2860962    3.5186165 
C    -0.6577241   -1.1653152    4.1021532 
C    -0.8340097   -1.3831180    5.4735685 
C     0.2669080   -1.7251647    6.2777514 
C     1.5379000   -1.8536953    5.7011404 
C     1.7196407   -1.6345151    4.3262406 
C     2.5658188   -1.1254417    1.3877495 
C     3.3894202   -0.0576672    1.8011431 
C     4.7773184   -0.1397086    1.6303498 
C     5.3493310   -1.2756581    1.0342444 
C     4.5276083   -2.3304936    0.6088311 
C     3.1385220   -2.2590725    0.7881941 
C    -2.0763176   -1.4135549   -0.4033458 
H    -2.8088002   -4.1873312   -0.0061710 
H    -1.1935238   -5.6459490    1.6156757 
H     0.9011232   -4.0766600    2.3415573 
H     2.6418476   -4.9438006   -0.5254827 
H     0.6055516   -6.7270335   -0.5062525 
H    -1.3923029   -5.7462926   -2.0642148 
H    -0.5973410   -3.3372220   -3.0307690 
H     1.8811915   -2.8124052   -2.0584564 
H    -1.5190307   -0.9022825    3.4764533 
H     2.7181875   -1.7274593    3.8892737 
H     2.9505828    0.8288985    2.2674576 
H     2.4839389   -3.0704434    0.4639913 
H    -2.5006889   -1.8197272   -1.3397223 
C    -3.2223272   -0.9489457    0.5357435 
H    -3.9195379   -1.7839731    0.7170232 
H    -2.8035963   -0.6370628    1.5084641 
H    -3.7910727   -0.1008537    0.1209848 
H    -1.8303831   -1.2866832    5.9172556 
H     2.3989593   -2.1206591    6.3226992 
H     5.4095897    0.6893424    1.9645460 
H     4.9692211   -3.2156895    0.1386082 
H     0.1305389   -1.8919816    7.3511708 
H     6.4340833   -1.3360455    0.8978890 
C    -3.4816068    2.5914351   -3.9190900 
C    -2.2007078    3.0025372   -3.4983239 
C    -1.5475299    2.2408385   -2.5186785 
C    -2.1368077    1.0704014   -1.9966683 
C    -3.4115464    0.6781566   -2.4417072 
C    -4.1041178    1.4435061   -3.4013622 
H    -4.0080844    3.1860058   -4.6755583 
H    -0.5507654    2.5434692   -2.1758541 
H    -3.8854600   -0.2334621   -2.0645317 
C    -1.5383041    4.2135710   -4.1139594 
H    -0.7072772    4.5793761   -3.4894625 
H    -1.1292843    3.9653364   -5.1112802 
H    -2.2582994    5.0383086   -4.2497754 
C    -5.4987123    1.0521195   -3.8378470 
H    -5.6656704   -0.0340734   -3.7420998 
H    -6.2569522    1.5593970   -3.2108620 
H    -5.6916808    1.3419929   -4.8842124 
C     2.3286183   -0.7850458   -3.8742001 
C     0.9991981   -1.0685162   -4.2467736 
C    -0.0222184   -0.8229812   -3.3124043 
C     0.2827007   -0.3418494   -2.0251521 
C     1.6161152   -0.0531102   -1.6850513 
C     2.6582702   -0.2712084   -2.6058319 
H     3.1310208   -0.9624540   -4.6007861 
H    -1.0670218   -0.9904060   -3.6002106 
H     1.8484544    0.3664578   -0.7009388 
C     0.6803546   -1.6548710   -5.6033740 
H    -0.3405029   -1.3917394   -5.9274633 
H     1.3909213   -1.3081756   -6.3720317 
H     0.7449066   -2.7593473   -5.5683005 
C     4.0916328    0.0472660   -2.2454431 
H     4.4870149    0.8606210   -2.8809132 
H     4.1811796    0.3543190   -1.1915770 
H     4.7417112   -0.8322111   -2.3976010 
