86
Energy =
C     1.7236927    1.6581162    1.8634199 
C     0.9175431    2.5913563    1.1557965 
C    -0.4829202    2.6358219    1.3317529 
H     1.3890131    3.2201084    0.3900279 
Pd    0.2346440    0.5821343    0.5476160 
P    -1.7237573    0.0256549   -0.6868853 
P     1.1806452   -1.5819877    0.5191097 
H     1.3439422    1.3002337    2.8321294 
H    -0.8797762    2.1920602    2.2566790 
C     6.0095272    1.6949217    1.4874758 
C     5.2076389    1.8877895    0.3493123 
C     3.8137264    1.8622086    0.4582076 
C     3.1926524    1.6425911    1.7090447 
C     4.0095288    1.4500595    2.8450829 
C     5.4061001    1.4781968    2.7351467 
H     7.1005550    1.7103986    1.3995145 
H     5.6743682    2.0467283   -0.6282309 
H     3.1959820    1.9752260   -0.4401325 
H     3.5433296    1.2892817    3.8236924 
H     6.0247067    1.3308340    3.6263001 
C    -3.1951516    5.3824384   -0.5670653 
C    -3.5725786    4.6869671    0.5914723 
C    -2.6736302    3.8053582    1.2041890 
C    -1.3815886    3.5931668    0.6682749 
C    -1.0116427    4.3131961   -0.4934569 
C    -1.9079756    5.1973449   -1.1008027 
H    -3.8959008    6.0719032   -1.0485796 
H    -4.5677977    4.8359287    1.0225906 
H    -2.9712269    3.2740663    2.1148401 
H    -0.0239411    4.1631919   -0.9410120 
H    -1.6050212    5.7431441   -2.0002680 
Fe   -0.1935609   -2.5507465   -2.3995535 
C     1.3378786   -2.2609777   -1.1469556 
C     1.4593324   -1.4026632   -2.3108229 
H     1.4718226   -0.3100965   -2.2879635 
C     1.5237894   -2.2352741   -3.4734178 
H     1.5850870   -1.8878762   -4.5061503 
C     1.4509010   -3.6026133   -3.0487963 
H     1.4456701   -4.4766963   -3.7026072 
C     1.3459076   -3.6309215   -1.6208269 
C    -1.7634624   -1.4309244   -1.8034165 
C    -1.9047894   -2.7990247   -1.3436870 
H    -1.9999674   -3.1174980   -0.3047175 
C    -1.9118459   -3.6657353   -2.4850845 
H    -1.9832731   -4.7544253   -2.4590171 
C    -1.7786363   -2.8557840   -3.6580420 
H    -1.7250829   -3.2171100   -4.6865637 
C    -1.6811234   -1.4846338   -3.2500960 
H     1.2718964   -4.5305325   -1.0106957 
H    -1.5394678   -0.6398909   -3.9212913 
C    -2.4975734    1.4201215   -1.6671657 
C    -3.9840261    1.0224434   -1.7376987 
C    -4.3868243    0.6497293   -0.3017768 
C    -3.3073619   -0.2806162    0.3258196 
H    -2.4212187    2.2463206   -0.9391098 
H    -4.5915024    1.8615409   -2.1225807 
H    -4.1233672    0.1690701   -2.4284640 
H    -4.4472109    1.5766186    0.2980275 
H    -5.3781425    0.1668380   -0.2568261 
H    -3.5674433   -1.3311069    0.1111459 
C     0.1090258   -2.5895609    1.6985174 
C     0.7550889   -2.1573161    3.0488854 
C     2.3107210   -2.0466455    2.9063610 
C     2.7051569   -2.1959879    1.4202520 
H    -0.9195967   -2.1967253    1.6340125 
H     0.3377412   -1.1780044    3.3442803 
H     0.4694454   -2.8721202    3.8397900 
H     2.6596931   -1.0701368    3.2822321 
H     2.8256444   -2.8184320    3.5041833 
H     2.6599875   -3.2719862    1.1589440 
C     4.0814609   -1.6866972    0.9986623 
H     4.2184226   -0.6219937    1.2254195 
H     4.8640373   -2.2525066    1.5346381 
C     0.0761361   -4.1125942    1.5028838 
H    -0.5479348   -4.5639287    2.2949043 
H    -0.3589048   -4.3895577    0.5292217 
C    -1.8298003    1.8922324   -2.9615289 
H    -0.7342636    1.9718967   -2.8504793 
H    -2.2124358    2.8948594   -3.2188411 
C    -3.1527412   -0.1022888    1.8402345 
H    -2.3987967   -0.7874910    2.2645417 
H    -4.1151475   -0.3033189    2.3436777 
H     1.0780240   -4.5686128    1.5775107 
H     4.2404873   -1.8372262   -0.0830268 
H    -2.8534575    0.9287514    2.0910060 
H    -2.0490852    1.2294165   -3.8131901 
