134
Energy =
C    -3.6748606   -0.6570645   -0.5797771 
C    -3.0586990   -1.2306739   -1.7073822 
C    -2.1855508   -2.3559702   -1.5496514 
H    -3.1748083   -0.7546207   -2.6886317 
Pd   -1.3099068   -0.6106352   -0.4925961 
P     0.5919939   -1.7219907    0.3253742 
P    -0.9632911    1.6128976    0.1888937 
H    -3.6380174   -1.2436597    0.3512055 
H    -2.3938669   -3.0331951   -0.7115642 
C    -6.5035910    2.5606560   -0.3767079 
C    -6.1785455    1.8154640    0.7673193 
C    -5.2530403    0.7706117    0.6782558 
C    -4.6264730    0.4536304   -0.5519317 
C    -4.9790960    1.2042416   -1.6980759 
C    -5.9050620    2.2462211   -1.6082393 
H    -7.2310938    3.3764444   -0.3133516 
H    -6.6542785    2.0436545    1.7266998 
H    -5.0076462    0.1811437    1.5689439 
H    -4.5294250    0.9703370   -2.6663346 
H    -6.1631374    2.8188887   -2.5041874 
C     0.0926460   -4.1811032   -4.7116878 
C    -0.4171723   -2.8829671   -4.8840529 
C    -1.1596528   -2.2757607   -3.8667501 
C    -1.4247697   -2.9612031   -2.6562177 
C    -0.9200957   -4.2733372   -2.5045246 
C    -0.1627119   -4.8722604   -3.5177040 
H     0.6783427   -4.6522070   -5.5079214 
H    -0.2269447   -2.3394885   -5.8154140 
H    -1.5258759   -1.2528812   -4.0101230 
H    -1.1297154   -4.8227305   -1.5813609 
H     0.2214808   -5.8882263   -3.3774668 
Fe    2.9156479    0.9833678    3.5612701 
C     1.8105704    0.2675722    2.0078816 
C     1.2451714    1.5188099    2.5030214 
C     2.2741691    2.5264072    2.4122736 
H     2.1478585    3.5684994    2.7075484 
C     3.4448221    1.9362374    1.8446687 
H     4.3919355    2.4431250    1.6547537 
C     3.1691855    0.5523526    1.6049855 
H     3.8786246   -0.1715232    1.2053479 
C     2.4530780    0.3766512    5.4683207 
H     1.4657629    0.1606477    5.8810257 
C     3.1195393    1.6493999    5.4868911 
H     2.7255904    2.5799753    5.8998901 
C     4.4023937    1.4847466    4.8645001 
H     5.1444079    2.2697072    4.7069999 
C     4.5268263    0.1131198    4.4575552 
H     5.3805591   -0.3253875    3.9372424 
C     3.3203792   -0.5707599    4.8278658 
H     3.0986791   -1.6256375    4.6521647 
C    -0.1514993    1.8214307    2.9215589 
C    -1.2215070    1.8896885    1.9859340 
C    -2.5420296    2.0655730    2.4536632 
H    -3.3715794    2.0548000    1.7415936 
C    -2.8076405    2.2618649    3.8137484 
H    -3.8396761    2.4024097    4.1517896 
C    -1.7454817    2.2928447    4.7279810 
H    -1.9338346    2.4715598    5.7916565 
C    -0.4392734    2.0665264    4.2787956 
H     0.3950855    2.0515540    4.9837977 
C     0.1707990   -3.4924273    0.6594236 
C    -1.0602542   -3.7859878    1.2891611 
H    -1.7226887   -2.9672013    1.5945110 
C    -1.4667135   -5.1100414    1.5113245 
C    -0.6178294   -6.1516972    1.0772625 
H    -0.9310592   -7.1916073    1.2296897 
C     0.6078587   -5.8929899    0.4448352 
C     0.9930405   -4.5505231    0.2398426 
H     1.9310107   -4.3442749   -0.2838450 
C     2.0768788   -1.8429713   -0.7457206 
C     3.3341571   -2.2359335   -0.2429917 
H     3.4608055   -2.4560424    0.8226035 
C     4.4428202   -2.3650058   -1.0972817 
C     4.2621808   -2.1047262   -2.4706017 
H     5.1232880   -2.1938516   -3.1444045 
C     3.0167674   -1.7284096   -3.0029070 
C     1.9255187   -1.6018502   -2.1223952 
H     0.9451634   -1.3073253   -2.5131971 
C     1.2011197   -1.1171427    2.0253350 
H     2.0144974   -1.8243800    2.2681203 
C     0.0873189   -1.2912074    3.0739523 
H     0.4052186   -0.7965751    4.0050632 
H    -0.8595774   -0.8237075    2.7527337 
H    -0.0964285   -2.3554789    3.2850696 
C     5.8011033   -2.7597701   -0.5604353 
C     2.8540205   -1.4697844   -4.4835210 
C    -2.7792233   -5.4217774    2.1952603 
C     1.5043132   -7.0148717   -0.0309105 
C    -3.4914261    4.4513347   -2.4605868 
C    -2.7839767    3.3651636   -3.0148943 
C    -2.1029566    2.5040522   -2.1428709 
C    -2.1095677    2.7225779   -0.7476594 
C    -2.8140924    3.8156457   -0.2235427 
C    -3.5257419    4.6856365   -1.0766905 
H    -4.0332716    5.1314541   -3.1291852 
H    -1.5327651    1.6589666   -2.5525255 
H    -2.8044672    4.0209496    0.8511468 
C     2.8959670    3.8080560   -1.1169471 
C     1.8919205    4.5266845   -0.4300029 
C     0.7404200    3.8393316   -0.0233919 
C     0.6019696    2.4598165   -0.2852252 
C     1.6031067    1.7725737   -0.9770723 
C     2.7728904    2.4396502   -1.3979994 
H     3.8018719    4.3376343   -1.4372479 
H    -0.0528022    4.3791605    0.5062169 
H     1.4923563    0.7043717   -1.1760827 
H    -3.3666885   -6.1555432    1.6158102 
H    -2.6058089   -5.8613541    3.1947678 
H    -3.3927834   -4.5152000    2.3276750 
H     1.0137509   -7.9967068    0.0672358 
H     1.7863668   -6.8723599   -1.0895426 
H     2.4422677   -7.0440302    0.5535833 
H     6.1947978   -3.6470114   -1.0873421 
H     6.5334728   -1.9447997   -0.7066634 
H     5.7601809   -2.9906686    0.5168242 
H     2.6642574   -2.4158208   -5.0230269 
H     2.0000442   -0.8021880   -4.6832157 
H     3.7631101   -1.0164985   -4.9136627 
C    -2.7970127    3.1160735   -4.5064968 
H    -2.5989445    4.0438436   -5.0706774 
H    -2.0421357    2.3672576   -4.7990686 
H    -3.7869772    2.7441771   -4.8335016 
C    -4.3238148    5.8296384   -0.4934199 
H    -5.2545689    5.4501368   -0.0306860 
H    -3.7581447    6.3543811    0.2959576 
H    -4.6064183    6.5643287   -1.2648684 
C     2.0747988    5.9966191   -0.1236372 
H     2.3730949    6.5589211   -1.0259877 
H     1.1493806    6.4461037    0.2721563 
H     2.8722320    6.1442019    0.6287490 
C     3.8619162    1.6730458   -2.1132467 
H     4.7642228    2.2893894   -2.2577027 
H     4.1408999    0.7682305   -1.5442843 
H     3.5200628    1.3305559   -3.1069080 
