112
Energy =
C     1.4437242    0.4215529   -2.6821576 
C     1.7128310    1.7220684   -2.1681759 
C     2.5696634    1.9110530   -1.0620717 
H     1.1580274    2.5789989   -2.5687434 
Pd    0.7670475    0.5448953   -0.5356979 
P     0.8736604    0.8459367    1.7853028 
P    -0.6764365   -1.2777414   -0.3903789 
H     2.2080979   -0.3442879   -2.4829276 
H     3.2627123    1.0928012   -0.8170524 
C    -0.7933400   -0.3926977   -6.2719528 
C     0.0848415   -1.3482766   -5.7395803 
C     0.7894734   -1.0738764   -4.5609428 
C     0.6271876    0.1571378   -3.8818186 
C    -0.2795625    1.0999387   -4.4197634 
C    -0.9707536    0.8319076   -5.6058162 
H    -1.3385391   -0.5990873   -7.1983801 
H     0.2318478   -2.3053527   -6.2506261 
H     1.4900932   -1.8164660   -4.1624345 
H    -0.4455071    2.0549750   -3.9105537 
H    -1.6599968    1.5797246   -6.0111576 
C     3.6462722    5.6417929    0.7883399 
C     4.2454308    4.4386431    1.1886065 
C     3.8944011    3.2368021    0.5634701 
C     2.9216841    3.2078025   -0.4620066 
C     2.3422716    4.4328887   -0.8698305 
C     2.7023988    5.6340452   -0.2526895 
H     3.9215055    6.5837712    1.2735266 
H     4.9955221    4.4352097    1.9863041 
H     4.3771451    2.3032706    0.8685247 
H     1.5999706    4.4515825   -1.6748166 
H     2.2458216    6.5724013   -0.5845552 
Fe   -3.0982565    0.2518707    1.7219834 
C    -1.8120505   -1.1793681    1.0257593 
C    -1.4459883   -0.7349919    2.3676307 
C    -2.5735467   -0.9988742    3.2282814 
C    -3.6269167   -1.5753799    2.4513709 
C    -3.1711592   -1.6795818    1.0998054 
C    -4.8969585    1.2173170    1.6093012 
C    -4.1116419    1.7369157    2.6916554 
C    -2.8865163    2.2452576    2.1491173 
C    -2.9066913    2.0311089    0.7292127 
C    -4.1563300    1.4049204    0.3963762 
C    -0.1150297   -0.2928016    2.9362300 
H    -2.6131278   -0.7687481    4.2952649 
H    -4.6188406   -1.8505377    2.8139971 
H    -3.7569980   -2.0650872    0.2660481 
H    -5.8764148    0.7433558    1.6954564 
H    -4.3876253    1.7261891    3.7477228 
H    -2.0834113    2.7038580    2.7231081 
H    -2.1104707    2.2888616    0.0287315 
H    -4.4927982    1.1235520   -0.6015613 
H    -0.3513927    0.3558213    3.7972625 
C     0.6966707   -1.4912815    3.4776153 
H     0.0445507   -2.0926324    4.1335963 
H     1.0592813   -2.1502780    2.6729270 
H     1.5689622   -1.1542284    4.0601847 
H     1.0756221   -2.3740745    0.7517515 
C     2.2453963   -4.3089978   -0.7961338 
C     1.2466760   -3.2123413   -1.2113652 
C     0.3814535   -2.7841988   -0.0076290 
C    -0.3449651   -3.9770953    0.6499550 
C     0.6748470   -5.0600657    1.0513310 
C     1.5299434   -5.5051993   -0.1467803 
H     2.9701228   -3.8799192   -0.0749878 
H     2.8293027   -4.6347951   -1.6757180 
H     0.6004755   -3.5913637   -2.0252590 
H     1.7858615   -2.3364530   -1.6152694 
H    -0.9105243   -3.6339547    1.5338296 
H    -1.0811796   -4.4080559   -0.0506188 
H     1.3364594   -4.6580368    1.8447383 
H     0.1446821   -5.9233956    1.4913312 
H     0.8782218   -5.9915478   -0.8995009 
H     2.2671351   -6.2645677    0.1688887 
H    -0.8944817   -1.5415211   -2.7224870 
C    -3.4704581   -0.6344662   -3.4555417 
C    -2.6737949   -0.4706792   -2.1514632 
C    -1.6663695   -1.6201750   -1.9330535 
C    -2.3209988   -3.0138913   -2.0699863 
C    -3.0852711   -3.1266943   -3.4028334 
C    -4.1361489   -2.0155406   -3.5433751 
H    -2.7881101   -0.5068973   -4.3145855 
H    -4.2254967    0.1700380   -3.5261481 
H    -3.3677574   -0.4439150   -1.2951267 
H    -2.1328471    0.4947069   -2.1454579 
H    -1.5503939   -3.8007662   -2.0194535 
H    -3.0183061   -3.2029449   -1.2345696 
H    -2.3638060   -3.0542354   -4.2403961 
H    -3.5558766   -4.1239136   -3.4707931 
H    -4.8910607   -2.1197658   -2.7380901 
H    -4.6788390   -2.1186380   -4.4998836 
C     5.3323302    0.0172016    2.8871209 
C     4.6692829   -0.7415020    1.9092231 
C     3.3287105   -0.4727699    1.6056902 
C     2.6282097    0.5527426    2.2788685 
C     3.3032662    1.3124062    3.2540551 
C     4.6468332    1.0421682    3.5553116 
H     6.3823850   -0.1855524    3.1211869 
H     5.1985440   -1.5386336    1.3767461 
H     2.8235859   -1.0535445    0.8237716 
H     2.7974778    2.1385342    3.7608186 
H     5.1621343    1.6458106    4.3096674 
C    -0.2142964    5.1417435    3.1996417 
C     0.0408528    4.1494364    4.1603293 
C     0.3772835    2.8502555    3.7578988 
C     0.4605749    2.5299615    2.3839781 
C     0.1979425    3.5309443    1.4312803 
C    -0.1340417    4.8306449    1.8354290 
H    -0.4810512    6.1547932    3.5175107 
H    -0.0254078    4.3867772    5.2270776 
H     0.5633385    2.0883765    4.5230685 
H     0.2421143    3.2790029    0.3675748 
H    -0.3343775    5.5979133    1.0814106 
