142
Energy =
C     2.7399539    1.9299687   -0.9185637 
C     3.2286492    0.6195748   -0.6530064 
C     2.8683649   -0.4853436   -1.4570668 
H     3.7977972    0.4424061    0.2671292 
Pd    1.0382232    0.5259289   -0.4438128 
P    -0.0855081   -1.4883701    0.0683358 
P    -0.4498211    2.1614439    0.2920081 
H     2.4840201    2.1696372   -1.9605972 
H     2.4775278   -0.2656758   -2.4619871 
C     3.6558561    5.3629505    1.5148152 
C     3.7388350    4.0741699    2.0679379 
C     3.4192486    2.9528966    1.2960377 
C     3.0472957    3.0922827   -0.0624825 
C     2.9860424    4.3947092   -0.6091618 
C     3.2722217    5.5194363    0.1742249 
H     3.8774299    6.2386519    2.1321353 
H     4.0229883    3.9487033    3.1163016 
H     3.4430835    1.9602457    1.7594621 
H     2.7167067    4.5181220   -1.6629524 
H     3.1957077    6.5198319   -0.2626755 
C     4.2822720   -4.5189804   -0.9931049 
C     3.4840578   -4.1620895   -2.0896532 
C     3.0317419   -2.8455333   -2.2253594 
C     3.3462451   -1.8618333   -1.2591076 
C     4.1477605   -2.2400580   -0.1560951 
C     4.6160831   -3.5499742   -0.0325913 
H     4.6506601   -5.5450140   -0.8907471 
H     3.2234951   -4.9063386   -2.8489781 
H     2.4288357   -2.5712410   -3.0954778 
H     4.4108007   -1.5090465    0.6133569 
H     5.2442580   -3.8192357    0.8212922 
Fe   -4.3580219    0.5100947   -1.9077110 
C    -2.5974587    0.9453025   -1.0092414 
C    -2.8966022   -0.4681403   -0.8533490 
C    -3.0624060   -1.0269096   -2.1717684 
H    -3.2960530   -2.0715814   -2.3820088 
C    -2.8214500    0.0048972   -3.1356997 
H    -2.8854076   -0.1031046   -4.2200380 
C    -2.5351627    1.2189840   -2.4284123 
H    -2.3511025    2.1940728   -2.8851845 
C    -5.7015283    2.0083221   -1.5346959 
H    -5.4769332    2.9881341   -1.1082764 
C    -6.0590288    0.8284377   -0.8001216 
H    -6.1743135    0.7602416    0.2831580 
C    -6.2566736   -0.2394705   -1.7404869 
H    -6.5285186   -1.2691637   -1.5007050 
C    -6.0309065    0.2846749   -3.0567324 
H    -6.0852707   -0.2789245   -3.9899470 
C    -5.6865903    1.6725537   -2.9299662 
H    -5.4328758    2.3473098   -3.7497285 
C    -2.8972484   -1.2161947    0.4317175 
C    -1.6681147   -1.6140263    1.0309600 
C    -1.6788194   -2.2096778    2.3093291 
H    -0.7382821   -2.4989925    2.7848704 
C    -2.8868504   -2.4418002    2.9816455 
H    -2.8710702   -2.8838589    3.9825216 
C    -4.1008642   -2.1211449    2.3622333 
H    -5.0505152   -2.3269328    2.8667116 
C    -4.0981083   -1.5149632    1.0985353 
H    -5.0353901   -1.2320310    0.6146353 
C     1.1088259   -2.3399980    1.1732018 
C     1.7446131   -1.5382911    2.1442664 
H     1.5640937   -0.4555089    2.1590505 
C     2.5895431   -2.0975198    3.1122121 
C     2.8009755   -3.4962085    3.0825583 
C     2.1898517   -4.3235099    2.1118539 
C     1.3465792   -3.7232618    1.1591845 
H     0.8772983   -4.3560785    0.4000908 
C    -0.4482069   -2.5606167   -1.3682536 
C    -1.0987795   -3.8005779   -1.2099170 
H    -1.3732920   -4.1536877   -0.2094006 
C    -1.4284604   -4.5893538   -2.3233071 
C    -1.1151445   -4.0920322   -3.6125753 
C    -0.4730615   -2.8466886   -3.8001805 
C    -0.1536740   -2.0940997   -2.6592737 
H     0.3076083   -1.1073975   -2.7799353 
C    -0.1258283    2.4428377    2.0784920 
C    -0.4472415    1.3634252    2.9261151 
H    -0.8771607    0.4446830    2.5141698 
C    -0.2245681    1.4494255    4.3070147 
C     0.3336017    2.6057938    4.8646289 
H     0.4854980    2.6803358    5.9444883 
C     0.6936342    3.6648868    4.0170577 
C     0.4834389    3.5860461    2.6332585 
H     0.8113608    4.4161364    2.0058241 
C    -0.2505163    3.7381509   -0.6361929 
C     0.0501569    3.5876033   -1.9992432 
H     0.2123021    2.5853355   -2.4099463 
C     0.1521098    4.7050797   -2.8382947 
C    -0.0228504    5.9948535   -2.3256810 
H     0.0808180    6.8688655   -2.9737643 
C    -0.3410250    6.1463666   -0.9665379 
C    -0.4874676    5.0307304   -0.1307407 
H    -0.7813040    5.1928778    0.9085971 
C    -2.3560855    1.9684556    0.0676835 
H    -2.6149208    2.9495877   -0.3656097 
C    -3.1582485    1.8219998    1.3685006 
H    -4.2277814    1.7944373    1.1046061 
H    -2.9330608    0.9017699    1.9254578 
H    -2.9819870    2.6822602    2.0348230 
C     0.5303414    4.4642723   -4.2811336 
F    -0.3045256    3.5635413   -4.8594263 
F     0.5123732    5.5871347   -5.0192780 
F     1.7851593    3.9353567   -4.3563136 
C    -0.4524732    7.5399942   -0.3818469 
F    -1.1897747    7.5500912    0.7513528 
F     0.7777878    8.0215584   -0.0685105 
F    -1.0120815    8.4027948   -1.2553692 
C    -0.6177152    0.2728515    5.1749719 
F    -1.9287780   -0.0338765    5.0142694 
F     0.0865793   -0.8425134    4.8364094 
F    -0.4027102    0.5068947    6.4834923 
C     1.3258047    4.8984517    4.6296057 
F     1.3969239    5.9229704    3.7495066 
F     0.6250759    5.3205915    5.7039785 
F     2.5896527    4.6410270    5.0580690 
C     3.2323929   -1.2556413    4.1878748 
H     4.3336110   -1.3363731    4.1629099 
H     2.9583238   -0.1939645    4.0740227 
H     2.9099293   -1.5947848    5.1872255 
C     2.4208618   -5.8154481    2.1126262 
H     1.5629075   -6.3480254    1.6710803 
H     3.3130827   -6.0792803    1.5141737 
H     2.5826246   -6.1838222    3.1388361 
C    -2.0986744   -5.9348662   -2.1731537 
H    -3.1778067   -5.8737592   -2.4078280 
H    -1.6586673   -6.6663903   -2.8710013 
H    -2.0034850   -6.3131949   -1.1427386 
C    -0.1529847   -2.3466708   -5.1890232 
H     0.6916014   -1.6378267   -5.1720770 
H     0.0941823   -3.1870442   -5.8578281 
H    -1.0169285   -1.8156254   -5.6319731 
O     3.5643975   -4.0476484    4.0882074 
O    -1.3944309   -4.8774689   -4.7089881 
C     4.9235330   -4.3662207    3.7677248 
H     5.3816686   -4.7370874    4.6964697 
H     4.9889990   -5.1519718    2.9917602 
H     5.4728293   -3.4692920    3.4212553 
C    -2.6654949   -4.6527620   -5.3337730 
H    -2.7304268   -5.3640688   -6.1704105 
H    -3.4981242   -4.8375725   -4.6284718 
H    -2.7464711   -3.6197780   -5.7228201 
