110
Energy =
C     1.3046874    2.7837418    0.5999778 
C     0.5478515    2.9259654   -0.5817350 
C    -0.8735718    2.8738841   -0.5775322 
H     1.0722796    3.0138635   -1.5412371 
Pd    0.0493248    0.8814543    0.0951467 
P    -1.8887280   -0.4910853   -0.1680598 
P     1.6851486   -0.7251845    0.6215381 
H     0.7780624    2.9290028    1.5542781 
H    -1.3823431    3.1438020    0.3577071 
C     5.5776410    3.1813640    0.9394541 
C     4.7432307    3.4166113    2.0421878 
C     3.3549609    3.2895092    1.9114272 
C     2.7679239    2.9234983    0.6775437 
C     3.6224507    2.7230433   -0.4320082 
C     5.0090824    2.8438854   -0.3009040 
H     6.6638933    3.2715766    1.0403623 
H     5.1741480    3.7007005    3.0075599 
H     2.7099927    3.4819332    2.7751736 
H     3.2014502    2.4541333   -1.4053863 
H     5.6523653    2.6746872   -1.1706576 
C    -3.1493272    3.5879383   -4.1645552 
C    -1.8782012    2.9949070   -4.2484990 
C    -1.1421548    2.7373126   -3.0882156 
C    -1.6524523    3.0817999   -1.8124387 
C    -2.9320727    3.6788748   -1.7456507 
C    -3.6727285    3.9273846   -2.9085134 
H    -3.7267427    3.7831152   -5.0736840 
H    -1.4646256    2.7229369   -5.2251195 
H    -0.1690249    2.2414675   -3.1686645 
H    -3.3394923    3.9703184   -0.7713441 
H    -4.6589410    4.3970338   -2.8333579 
Fe   -0.4332299   -3.4261157    0.8895775 
C     1.1477019   -2.2950804    1.3723885 
C     1.5752923   -3.6486632    1.0827161 
H     2.2670778   -3.9551999    0.2967661 
C     0.9017979   -4.5351136    1.9855383 
H     0.9877705   -5.6232271    1.9898589 
C     0.0667816   -3.7518278    2.8472361 
H    -0.5937556   -4.1376642    3.6256344 
C     0.2137091   -2.3754008    2.4780241 
C    -1.7436854   -2.3073740   -0.1486227 
C    -2.4376577   -3.2351578    0.7257694 
H    -3.1190568   -2.9736556    1.5364202 
C    -2.0526188   -4.5675553    0.3641968 
H    -2.3858828   -5.4816780    0.8587136 
C    -1.1223996   -4.4865197   -0.7216681 
H    -0.6238021   -5.3288979   -1.2040910 
C    -0.9235660   -3.1034231   -1.0394520 
H    -0.2999265   -1.5300433    2.9364671 
H    -0.2605868   -2.7182837   -1.8116829 
C    -2.9669038   -0.0299783   -1.6614976 
C    -4.2901965    0.5097774   -1.0550602 
C    -4.0351125    0.9931355    0.3814258 
C    -3.2443700   -0.1257624    1.0866321 
H    -2.4185123    0.8239003   -2.0900034 
H    -4.6921138    1.3182583   -1.6887038 
H    -5.0449951   -0.2951223   -1.0250360 
H    -3.4505749    1.9298646    0.3767002 
H    -4.9810114    1.2022188    0.9105437 
H    -3.8762364   -1.0331843    1.0428007 
C     3.1651232   -0.3318007    1.7284495 
C     4.2492098   -1.2705046    1.1633465 
C     4.2032415   -1.1500517   -0.3640351 
C     2.7370588   -1.2465414   -0.8772283 
H     3.4416622    0.7101666    1.4876481 
H     5.2473907   -0.9934726    1.5438732 
H     4.0522341   -2.3093200    1.4901553 
H     4.6031250   -0.1571859   -0.6410037 
H     4.8381562   -1.9066825   -0.8553710 
H     2.4684121   -2.3020947   -1.0678232 
C     2.5025109   -0.4463425   -2.1895122 
H     2.5826254    0.6273364   -1.9324303 
C     2.9058277   -0.4461099    3.2481734 
H     2.6043334   -1.4906476    3.4567666 
C    -3.1076177   -1.0845846   -2.7951371 
H    -2.1000735   -1.5114744   -2.9628976 
C    -2.8349160    0.0858699    2.5630443 
H    -2.2129440   -0.7870372    2.8397471 
C     1.7745359    0.4846704    3.7184800 
H     1.5138742    0.2838605    4.7717944 
H     2.0813516    1.5411335    3.6432351 
H     0.8603807    0.3653592    3.1119309 
C     4.1937220   -0.1593794    4.0457072 
H     3.9884305   -0.1935239    5.1298451 
H     4.9847534   -0.8978043    3.8337978 
H     4.5875197    0.8453307    3.8050403 
C     3.5897343   -0.7696672   -3.2344547 
H     3.3911129   -0.2223270   -4.1722687 
H     4.6004105   -0.4913469   -2.8945935 
H     3.5945794   -1.8496739   -3.4715371 
C     1.1172858   -0.6747015   -2.8110985 
H     0.9818561   -0.0391877   -3.7031730 
H     0.9982531   -1.7249490   -3.1350639 
H     0.3072907   -0.4271727   -2.0990879 
C    -3.5277431   -0.3862183   -4.1037648 
H    -3.6012368   -1.1180850   -4.9270621 
H    -4.5154734    0.0971568   -3.9956574 
H    -2.8030070    0.3923543   -4.3947037 
C    -4.0663399   -2.2460681   -2.4775951 
H    -3.9789078   -3.0266853   -3.2525747 
H    -3.8529905   -2.7163480   -1.5041927 
H    -5.1177639   -1.9075327   -2.4736275 
C    -4.0770082    0.0635553    3.4753663 
H    -3.7790996    0.1105766    4.5370661 
H    -4.7371099    0.9264840    3.2764912 
H    -4.6685211   -0.8577073    3.3283598 
C    -1.9991548    1.3511378    2.8015733 
H    -1.6506766    1.3993035    3.8471055 
H    -1.1025522    1.3588300    2.1463078 
H    -2.5808901    2.2674009    2.5962033 
