132
Energy =
C     0.5470496   -0.5863719   -3.5258452 
C     0.4002877    0.7914901   -3.2240227 
C     1.2186978    1.4262537   -2.2540605 
H    -0.4366312    1.3491697   -3.6610023 
Pd    0.0181918   -0.2456118   -1.3098925 
P     0.0468522    0.7560214    0.7914146 
P    -0.6916706   -2.3792691   -0.6147086 
H     1.5196882   -1.0448497   -3.2916806 
H     2.1878096    0.9527115   -2.0399395 
C    -1.7520451   -2.8095562   -6.4136474 
C    -0.5464624   -3.3190545   -5.9092742 
C     0.1973840   -2.5745054   -4.9857574 
C    -0.2520162   -1.3127953   -4.5275159 
C    -1.4549952   -0.8025813   -5.0698341 
C    -2.1935755   -1.5416066   -5.9987034 
H    -2.3366734   -3.3872448   -7.1366808 
H    -0.1774032   -4.2942513   -6.2438386 
H     1.1529510   -2.9666809   -4.6214301 
H    -1.8267260    0.1762450   -4.7531783 
H    -3.1237473   -1.1277199   -6.4018546 
C     1.1704813    5.6109291   -1.2754515 
C     0.0603405    5.0392222   -1.9196659 
C     0.0452752    3.6743037   -2.2194020 
C     1.1461095    2.8504179   -1.8877992 
C     2.2388132    3.4320094   -1.2046706 
C     2.2528493    4.7998349   -0.9056976 
H     1.1816915    6.6818890   -1.0498197 
H    -0.8018648    5.6615382   -2.1795019 
H    -0.8344495    3.2456467   -2.7093039 
H     3.0876656    2.8012348   -0.9182796 
H     3.1152842    5.2347117   -0.3895501 
Fe   -0.4291554   -0.9532792    3.9052606 
C    -0.8556091   -0.1831783    2.0670321 
C    -1.0285432   -1.6290729    2.0921556 
C    -2.0165943   -1.9173366    3.1031915 
C    -2.4393443   -0.6846316    3.7011074 
C    -1.7226296    0.3842250    3.0756036 
C     1.5835915   -0.9004448    4.2996470 
C     0.8757369    0.0336290    5.1319893 
C    -0.0891609   -0.7001501    5.9002493 
C     0.0197416   -2.0860071    5.5418408 
C     1.0562543   -2.2075195    4.5558336 
C    -0.8525039    2.3546141    0.7298361 
C    -0.3586784    3.5808486    1.2062353 
C    -1.1232289    4.7558651    1.1102314 
C    -2.3926427    4.6863148    0.4954208 
C    -2.8980732    3.4764848   -0.0356659 
C    -2.1133594    2.3215530    0.0980662 
C     1.7462719    1.0310438    1.4089882 
C     2.0224608    1.8166989    2.5455525 
C     3.3332099    1.9679842    3.0203923 
C     4.3780875    1.2939922    2.3410688 
C     4.1271713    0.4568894    1.2297708 
C     2.8003696    0.3482151    0.7773876 
C    -0.3070529   -2.6358456    1.2230887 
H    -2.3616397   -2.9093269    3.3982565 
H    -3.1554697   -0.5847968    4.5186941 
H    -1.8188428    1.4489765    3.2937589 
H     2.3773445   -0.6594414    3.5915234 
H     1.0425639    1.1096995    5.1815897 
H    -0.7975722   -0.2771739    6.6148364 
H    -0.5928592   -2.8998850    5.9345574 
H     1.3857862   -3.1323170    4.0788088 
H     0.6472848    3.6510680    1.6249912 
H    -2.4814249    1.3800939   -0.3248801 
H     1.2050871    2.2913825    3.0955811 
H     2.5786679   -0.3020999   -0.0775880 
H     0.7688714   -2.3801266    1.2565811 
H     0.3080095   -3.1979533   -2.5792731 
H    -2.3231263   -4.0922706   -0.9620098 
C    -3.3453927   -1.0418806   -2.3448368 
C    -2.9152968   -2.5196132   -2.3407084 
C    -2.4409581   -2.9943690   -0.9449610 
C    -3.4997313   -2.6504305    0.1237661 
C    -3.8847103   -1.1665413    0.1298610 
C    -4.3844330   -0.7313907   -1.2558203 
H    -3.7385370   -0.7795977   -3.3415803 
H    -2.4456204   -0.4074291   -2.1820569 
H    -2.1390263   -2.6952485   -3.1070002 
H    -3.7803337   -3.1499105   -2.6244518 
H    -4.3967756   -3.2537742   -0.1200238 
H    -3.1741723   -2.9746500    1.1235095 
H    -4.6520564   -0.9797381    0.9017480 
H    -3.0018336   -0.5649203    0.4207298 
H    -4.6301243    0.3457353   -1.2588495 
H    -5.3268481   -1.2662955   -1.4859464 
C     0.9722483   -5.8349620   -2.5688197 
C     0.0123018   -5.0833578   -1.6239185 
C     0.4037664   -3.5913152   -1.5506635 
C     1.8785142   -3.4144656   -1.1223695 
C     2.8290628   -4.1842694   -2.0562268 
C     2.4404172   -5.6688680   -2.1447348 
H     0.8391455   -5.4468469   -3.5977825 
H     0.6972738   -6.9043567   -2.5977877 
H     0.0478855   -5.5481530   -0.6226687 
H    -1.0214430   -5.1947561   -1.9947203 
H     2.1375247   -2.3375712   -1.1076195 
H     2.0135052   -3.7866881   -0.0882136 
H     2.7910121   -3.7320513   -3.0669997 
H     3.8701117   -4.0743858   -1.7019691 
H     2.5900699   -6.1426848   -1.1543462 
H     3.1056903   -6.1976041   -2.8503171 
C    -0.4885270   -4.0820988    1.7142501 
H    -0.3054813   -4.1251121    2.8012619 
H    -1.5069652   -4.4615775    1.5275246 
H     0.2243670   -4.7622218    1.2246446 
C    -0.5984803    6.0779466    1.6164092 
H    -0.8451958    6.8886899    0.9115235 
H    -1.0571964    6.3432556    2.5874776 
H     0.4936443    6.0413070    1.7576241 
C    -4.2254771    3.4487577   -0.7569804 
H    -4.4415353    4.4311583   -1.2066454 
H    -4.2266585    2.6840967   -1.5513247 
H    -5.0548475    3.2064730   -0.0661570 
O    -3.0999440    5.8557254    0.3142424 
C    -4.0895011    6.1501777    1.3101125 
H    -4.5435037    7.1101194    1.0223052 
H    -4.8724194    5.3688382    1.3446258 
H    -3.6310782    6.2448762    2.3128587 
C     3.6457209    2.7799850    4.2543484 
H     4.3202942    3.6232029    4.0221940 
H     2.7269197    3.1913377    4.7027810 
H     4.1625113    2.1581929    5.0058189 
C     5.2475136   -0.3112927    0.5681528 
H     4.8669734   -1.2305482    0.0919322 
H     5.7386328    0.2895247   -0.2204121 
H     6.0195978   -0.5825848    1.3065338 
O     5.6505820    1.3949110    2.8541395 
C     6.5177372    2.3412408    2.2120224 
H     7.4675964    2.3149517    2.7660589 
H     6.7021201    2.0723667    1.1548898 
H     6.0932025    3.3624390    2.2544493 
