122
Energy =
C     1.1730470   -1.6758745   -2.9932740 
C     2.0083919   -0.5766971   -2.6657404 
C     2.9179034   -0.6277047   -1.5831534 
H     1.8700074    0.3715056   -3.1982142 
Pd    0.7251747   -0.9000792   -0.8856779 
P     1.0138422    0.3202853    1.0885294 
P    -1.4601812   -1.8078996   -0.7816231 
H     1.4923593   -2.6697146   -2.6474124 
H     3.1994320   -1.6239334   -1.2100705 
C    -1.5294328   -1.8219548   -6.3343599 
C    -1.1058136   -2.9982808   -5.6997479 
C    -0.2309825   -2.9314376   -4.6094039 
C     0.2367032   -1.6875026   -4.1289582 
C    -0.1883278   -0.5093374   -4.7892149 
C    -1.0619478   -0.5779725   -5.8770396 
H    -2.2154502   -1.8711500   -7.1861845 
H    -1.4563158   -3.9732047   -6.0537423 
H     0.1025226   -3.8527873   -4.1205976 
H     0.1560093    0.4727919   -4.4498682 
H    -1.3842546    0.3441077   -6.3713632 
C     5.6839355    2.4752073   -0.4729063 
C     5.7131797    1.2265529    0.1654683 
C     4.8117686    0.2246448   -0.2118201 
C     3.8431158    0.4564573   -1.2169434 
C     3.8346375    1.7175038   -1.8604153 
C     4.7504065    2.7086359   -1.4967669 
H     6.3825633    3.2642692   -0.1789041 
H     6.4499592    1.0266654    0.9502422 
H     4.8673355   -0.7586178    0.2638794 
H     3.1094356    1.9316092   -2.6508182 
H     4.7311095    3.6778285   -2.0040483 
Fe   -3.2676613    2.0083856    2.2927868 
C    -1.6261279    1.1156282    1.5087621 
C    -2.8107418    0.3271473    1.1997872 
C    -3.7291509    1.1871274    0.4928861 
H    -4.7120317    0.8846690    0.1314010 
C    -3.1169455    2.4687866    0.3180143 
H    -3.5639657    3.3320556   -0.1770415 
C    -1.8323636    2.4360377    0.9512254 
H    -1.1454431    3.2784808    1.0428223 
C    -2.7961117    2.6752219    4.1667531 
H    -1.7983864    2.7063559    4.6095253 
C    -3.7220912    1.5820542    4.2503676 
H    -3.5568163    0.6456520    4.7865053 
C    -4.9072127    1.9464780    3.5240244 
H    -5.8014119    1.3340418    3.3934025 
C    -4.7139827    3.2669741    2.9979396 
H    -5.4239811    3.8228161    2.3829338 
C    -3.4105944    3.7179991    3.3958483 
H    -2.9566746    4.6756727    3.1340941 
C    -3.0494266   -1.1125211    1.4995786 
C    -2.4176188   -2.1603204    0.7695535 
C    -2.6180741   -3.4990067    1.1691057 
H    -2.1325264   -4.3104970    0.6213288 
C    -3.4598151   -3.8178603    2.2426290 
H    -3.5947784   -4.8647221    2.5326728 
C    -4.1452219   -2.7968464    2.9107751 
H    -4.8339054   -3.0318744    3.7287544 
C    -3.9345706   -1.4645998    2.5360486 
H    -4.4445330   -0.6546994    3.0603314 
C     2.3563084   -0.2393657    2.2061086 
C     2.9280846   -1.4961488    1.9545980 
H     2.5663299   -2.0954959    1.1123655 
C     3.9681464   -1.9802112    2.7604562 
C     4.4410688   -1.2235918    3.8395140 
H     5.2626071   -1.5926079    4.4583170 
C     3.8420174    0.0146857    4.1183322 
C     2.8006884    0.5021831    3.3175845 
H     2.3458633    1.4633283    3.5746996 
C     1.4613210    2.0008427    0.4729726 
C     0.7561371    2.3924981   -0.6774678 
H     0.0261446    1.7071417   -1.1200055 
C     0.9756606    3.6432298   -1.2663750 
C     1.9032638    4.5309121   -0.7121838 
H     2.0905374    5.5016074   -1.1787914 
C     2.6191913    4.1360979    0.4304654 
C     2.4090562    2.8823149    1.0223455 
H     3.0246981    2.6017066    1.8789369 
C    -0.4057282    0.7009411    2.2888159 
H    -0.0504765    1.5914447    2.8397289 
C    -0.5998447   -0.4609600    3.2778366 
H    -1.5271039   -0.2893309    3.8472799 
H    -0.6937808   -1.4329994    2.7673967 
H     0.2432775   -0.5206417    3.9842632 
C     0.2251982    3.9497111   -2.5396713 
F     0.4698876    5.1829413   -3.0106235 
F     0.5706619    3.0557925   -3.5198804 
F    -1.1161188    3.8191517   -2.3693020 
C     3.6450488    5.0884466    1.0107403 
F     4.4575181    4.4736001    1.9003548 
F     4.4276822    5.6138336    0.0347266 
F     3.0495518    6.1233446    1.6444684 
C     4.6032129   -3.3001166    2.3820395 
F     5.4853167   -3.7320922    3.2996557 
F     3.6649968   -4.2615722    2.2073057 
F     5.2634075   -3.1816911    1.1942730 
C     4.2844016    0.8338907    5.3147021 
F     4.2732737    2.1576052    5.0202045 
F     3.4473253    0.6505363    6.3624019 
F     5.5278982    0.5044993    5.7171845 
C    -1.0554470   -6.1055836   -2.5429206 
C    -0.0966874   -5.5888729   -1.6554232 
C    -0.2383110   -4.2881556   -1.1546681 
C    -1.3407332   -3.4897027   -1.5318398 
C    -2.2917122   -4.0112229   -2.4278194 
C    -2.1479855   -5.3151378   -2.9265052 
H    -0.9459198   -7.1209231   -2.9374280 
H     0.7606673   -6.1990490   -1.3532328 
H     0.5106559   -3.8875060   -0.4590897 
H    -3.1333696   -3.3981089   -2.7600443 
H    -2.8903016   -5.7077568   -3.6290302 
C    -4.4912838    0.7169520   -3.2353008 
C    -4.9359529   -0.4315845   -2.5583340 
C    -4.0348206   -1.2072404   -1.8177818 
C    -2.6699671   -0.8488492   -1.7727738 
C    -2.2363570    0.3041904   -2.4487359 
C    -3.1414738    1.0894921   -3.1738518 
H    -5.2029420    1.3262194   -3.8021821 
H    -5.9928755   -0.7154858   -2.5955107 
H    -4.3964314   -2.0732153   -1.2526214 
H    -1.1814739    0.5900043   -2.3946730 
H    -2.7879767    1.9935214   -3.6786732 
