94
Energy =
C    -1.4676234    2.6011136    0.7534023 
C    -0.6225863    2.2517329    1.8346426 
C     0.7951472    2.3748915    1.7529232 
H    -1.0573325    1.7235289    2.6928753 
Pd    0.0405659    1.0158099    0.1517517 
P     1.9693383   -0.2499820   -0.1225027 
P    -1.3632422   -0.2828161   -1.1942567 
H    -1.0944825    3.3438085    0.0314777 
H     1.2106283    3.1666475    1.1125771 
C    -5.7423180    2.1391888    0.8182220 
C    -4.9351611    1.2492441    1.5472919 
C    -3.5440538    1.3781885    1.5215536 
C    -2.9286465    2.4034009    0.7649626 
C    -3.7504763    3.2755697    0.0188789 
C    -5.1444839    3.1498652    0.0521946 
H    -6.8322834    2.0382351    0.8417141 
H    -5.3948526    0.4467812    2.1338541 
H    -2.9240172    0.6619566    2.0691940 
H    -3.2877958    4.0668278   -0.5813321 
H    -5.7657431    3.8407431   -0.5267626 
C     3.3933056    0.9747372    4.8899161 
C     3.7470884    2.0906262    4.1166940 
C     2.8992728    2.5362635    3.0963767 
C     1.6848058    1.8720434    2.8204597 
C     1.3472522    0.7383920    3.5970417 
C     2.1875585    0.3035575    4.6275988 
H     4.0528601    0.6289154    5.6924720 
H     4.6856264    2.6192862    4.3118273 
H     3.1715326    3.4180535    2.5082551 
H     0.4336339    0.1770764    3.3703368 
H     1.9077859   -0.5732591    5.2215839 
Fe    1.1333766   -1.4041693   -3.2762826 
C     2.3533480   -0.7167788   -1.8342445 
C     2.2700702    0.2257119   -2.9303965 
H     1.9163250    1.2566316   -2.8595433 
C     2.7269157   -0.4433626   -4.1135861 
H     2.7631003   -0.0141314   -5.1164263 
C     3.0865471   -1.7878338   -3.7602939 
H     3.4371575   -2.5576277   -4.4503647 
C     2.8632083   -1.9633679   -2.3559126 
C    -0.7760536   -1.2531583   -2.6279193 
C    -0.3503083   -2.6351988   -2.6467925 
H    -0.3090219   -3.2949223   -1.7813945 
C     0.0212836   -2.9581615   -3.9938908 
H     0.4048845   -3.9211364   -4.3358530 
C    -0.1658551   -1.7904238   -4.8067951 
H     0.0529562   -1.7090726   -5.8730276 
C    -0.6513766   -0.7322375   -3.9702503 
H     3.0183906   -2.8769797   -1.7810301 
H    -0.8868036    0.2868689   -4.2807061 
C     1.8958733   -1.7966549    0.8067501 
C     2.3164384   -2.1839403    2.0619765 
C     1.7777510   -3.4931726    2.2810450 
C     1.0542466   -3.8257905    1.1575353 
H     2.9257005   -1.5933781    2.7440751 
H     1.9220559   -4.1234183    3.1588822 
O     1.1153573   -2.7909379    0.2575544 
C     0.2883251   -5.0306168    0.7339746 
H     0.7410803   -5.4936344   -0.1616777 
H     0.2835510   -5.7749417    1.5445749 
H    -0.7557994   -4.7657074    0.4907772 
C     3.5153110    0.4906017    0.4510858 
C     4.6918926    0.0325150    1.0044804 
C     5.5905399    1.1450721    1.0191739 
C     4.9217621    2.2105735    0.4588800 
H     4.8929992   -0.9832915    1.3425263 
H     6.6135291    1.1575264    1.3954120 
O     3.6533622    1.8209847    0.1126719 
C     5.2926370    3.6238883    0.1706773 
H     6.3303989    3.8093407    0.4860753 
H     5.2089923    3.8423666   -0.9090931 
H     4.6323437    4.3309642    0.7054457 
C    -2.0355925   -1.5296398   -0.0708012 
C    -2.8742051   -2.6174418   -0.1959109 
C    -2.9935120   -3.1936803    1.1088932 
C    -2.2143359   -2.4328487    1.9554740 
H    -3.3411835   -2.9616842   -1.1192630 
H    -3.5807694   -4.0678044    1.3915140 
C    -2.8324146    0.5231379   -1.8820188 
C    -4.1835964    0.2615447   -1.8819058 
C    -4.7840629    1.2522393   -2.7227483 
C    -3.7708209    2.0608356   -3.1836173 
H    -4.6837161   -0.5344800   -1.3322290 
H    -5.8447224    1.3657957   -2.9465820 
O    -1.6312221   -1.4196764    1.2460652 
O    -2.5719827    1.6247984   -2.6711852 
C    -1.8830197   -2.5012864    3.4062729 
H    -0.7941533   -2.6264724    3.5474317 
H    -2.1892636   -1.5771782    3.9293562 
H    -2.4014159   -3.3530825    3.8715713 
C    -3.7273086    3.2686938   -4.0531279 
H    -3.3549426    4.1472392   -3.4944768 
H    -3.0584221    3.1157657   -4.9190359 
H    -4.7371333    3.4957977   -4.4269937 
