116
Energy =
C     2.3388648   -1.0242111   -1.7486307 
C     1.4524352   -1.6065258   -2.7243936 
C     0.7174933   -0.8051746   -3.6046194 
H     1.3336028   -2.6973422   -2.7550013 
Pd    0.2971571   -0.4846459   -1.1613027 
P    -2.0488284   -0.5619350   -0.7391186 
P     0.9305559    0.7929861    0.6954441 
H     2.8349516   -0.0947795   -2.0544514 
H     0.9368509    0.2735691   -3.5916888 
C     4.6108902   -3.5012623    0.9563455 
C     3.3065546   -3.8723378    0.5886038 
C     2.5644108   -3.0687890   -0.2832240 
C     3.1116334   -1.8783421   -0.8198607 
C     4.4275989   -1.5226631   -0.4451006 
C     5.1669474   -2.3229512    0.4358732 
H     5.1893236   -4.1284142    1.6422279 
H     2.8634724   -4.7887408    0.9920928 
H     1.5384076   -3.3563954   -0.5413264 
H     4.8790000   -0.6158592   -0.8601688 
H     6.1863431   -2.0304158    0.7085258 
C    -1.6679857   -1.9780544   -6.9723918 
C    -1.4514135   -0.6223486   -6.6810695 
C    -0.6750009   -0.2619882   -5.5754800 
C    -0.1007652   -1.2464874   -4.7328378 
C    -0.3110787   -2.6100223   -5.0560401 
C    -1.0897586   -2.9684133   -6.1589313 
H    -2.2744621   -2.2645690   -7.8376225 
H    -1.8858662    0.1537362   -7.3192533 
H    -0.5077108    0.7972861   -5.3491217 
H     0.1428602   -3.3963298   -4.4455769 
H    -1.2413062   -4.0267161   -6.3946566 
Fe   -1.4403639    1.9615329    3.2921761 
C    -0.4854535    1.6527947    1.4855491 
C    -1.8652765    1.1868827    1.4536993 
C    -2.7165363    2.3080642    1.7606619 
C    -1.8925912    3.4566340    1.9959401 
C    -0.5257040    3.0574720    1.8523788 
C    -2.7646269    1.6863181    4.8156980 
C    -1.8608458    0.5730164    4.7489662 
C    -0.5324361    1.0792308    4.9256912 
C    -0.6036552    2.5010534    5.0857762 
C    -1.9876338    2.8770798    5.0245301 
C    -2.3185520   -0.2097587    1.1173368 
H    -3.8036278    2.2843256    1.8471356 
H    -2.2430810    4.4501480    2.2807564 
H     0.3354128    3.7137570    1.9825217 
H    -3.8506380    1.6435631    4.7117532 
H    -2.1313128   -0.4753799    4.6100870 
H     0.3743323    0.4789760    4.9489140 
H     0.2416606    3.1758302    5.2313062 
H    -2.3818824    3.8920226    5.1008296 
H    -1.5723838   -0.8979776    1.5515493 
C    -3.6866100   -0.5371039    1.7462989 
H    -3.6631424   -0.2142686    2.7998947 
H    -4.5220760   -0.0193500    1.2552082 
H    -3.8962492   -1.6163431    1.7302237 
C    -2.6438137   -2.3812371   -0.9564134 
C    -3.0799434    0.6733611   -1.7743121 
C    -2.0104655   -3.1939648    0.1999779 
H    -2.1600745   -4.2708209    0.0020420 
H    -0.9214285   -3.0109282    0.2637540 
H    -2.4580811   -2.9752992    1.1822300 
C    -4.4690308    1.0060235   -1.1947725 
H    -4.9891441    1.6843860   -1.8963472 
H    -5.0999059    0.1118868   -1.0693864 
H    -4.3935617    1.5300132   -0.2300516 
C    -4.1763200   -2.5626331   -0.9769037 
H    -4.4026775   -3.6438225   -1.0303895 
H    -4.6732165   -2.1644095   -0.0806825 
H    -4.6301803   -2.0903002   -1.8627516 
C    -2.0560090   -2.9364746   -2.2707225 
H    -2.3495976   -3.9972075   -2.3762508 
H    -2.4090592   -2.4022220   -3.1635376 
H    -0.9549488   -2.8884481   -2.2547149 
C    -2.2283578    1.9647311   -1.8490464 
H    -2.7664804    2.7156173   -2.4568810 
H    -2.0439428    2.4013331   -0.8543450 
H    -1.2529043    1.7670520   -2.3271859 
C    -3.2371048    0.1176970   -3.2038273 
H    -3.6368521    0.9172300   -3.8542197 
H    -2.2726385   -0.2026055   -3.6268355 
H    -3.9409634   -0.7286376   -3.2526378 
H     2.0035167    2.8992847    1.1114751 
C     2.1107410    4.3541459   -1.2404162 
C     1.3299567    3.0614076   -0.9433618 
C     1.9914071    2.2658298    0.2032532 
C     3.4578465    1.9468452   -0.1469347 
C     4.2386345    3.2488986   -0.4095419 
C     3.5916591    4.0685391   -1.5379840 
H     2.0349552    5.0264313   -0.3629598 
H     1.6402887    4.8873783   -2.0860672 
H     1.3074450    2.4170427   -1.8457455 
H     0.2806038    3.2975678   -0.6978115 
H     3.9457811    1.3613859    0.6503724 
H     3.4877920    1.3296886   -1.0602928 
H     4.2656829    3.8512578    0.5199181 
H     5.2873820    3.0069884   -0.6588806 
H     3.6692103    3.5011073   -2.4869071 
H     4.1420681    5.0137514   -1.6908643 
H     2.7273701   -0.5933080    1.3689567 
C     1.8880254   -2.1399040    3.5355864 
C     1.0650701   -1.2880011    2.5531883 
C     1.9133333   -0.1396765    1.9675054 
C     2.5371955    0.7370943    3.0711572 
C     3.3604670   -0.1305184    4.0447613 
C     2.5397310   -1.2884148    4.6375375 
H     2.6792682   -2.6608720    2.9652455 
H     1.2459891   -2.9222260    3.9797603 
H     0.1826480   -0.8539380    3.0616955 
H     0.6877423   -1.9200234    1.7276954 
H     3.1913599    1.5097679    2.6320732 
H     1.7307192    1.2729796    3.6020295 
H     4.2269316   -0.5479543    3.4952255 
H     3.7715064    0.5036467    4.8508186 
H     1.7573194   -0.8852733    5.3097699 
H     3.1851493   -1.9216325    5.2718265 
