90
Energy =
C     2.3623932   -0.6807860    1.8479197 
C     2.8887749    0.3060893    0.9655265 
C     2.4546483    1.6447617    1.0646842 
H     3.5640916    0.0090434    0.1539522 
Pd    0.7188762    0.2051511    0.5397164 
P    -0.3444368    1.6229626   -1.0490743 
P    -1.0013495   -1.3760443    1.0527345 
H     2.0257693   -0.3174408    2.8279243 
H     1.9284378    1.9205645    1.9913314 
C     3.4984365   -4.8342221    1.8290857 
C     3.0407025   -4.2226527    3.0064185 
C     2.6807265   -2.8697033    3.0014328 
C     2.7645996   -2.0985590    1.8176367 
C     3.2377225   -2.7277922    0.6421625 
C     3.6017723   -4.0781672    0.6496013 
H     3.7798521   -5.8921244    1.8309827 
H     2.9704470   -4.8003401    3.9338516 
H     2.3351867   -2.3963788    3.9263745 
H     3.3017288   -2.1603257   -0.2926529 
H     3.9626062   -4.5475010   -0.2715404 
C     3.7842808    5.0506588   -1.1889021 
C     2.8343672    5.1922114   -0.1643070 
C     2.4295923    4.0740141    0.5723246 
C     2.9546561    2.7888671    0.2925676 
C     3.9336628    2.6681462   -0.7212251 
C     4.3394709    3.7875736   -1.4548421 
H     4.1032656    5.9232942   -1.7677034 
H     2.4135994    6.1771236    0.0624413 
H     1.6878286    4.1862527    1.3712829 
H     4.3784648    1.6938896   -0.9442221 
H     5.0967850    3.6770292   -2.2376949 
Fe   -2.8443872   -0.6170178   -1.7402230 
C    -1.4230010    0.7055716   -2.1944707 
C    -2.6434074    1.0228452   -2.9136229 
H    -3.2228033    1.9411738   -2.8466336 
C    -2.9915761   -0.1076574   -3.7237806 
H    -3.8816379   -0.1861012   -4.3508324 
C    -1.9986938   -1.1232879   -3.5389495 
H    -1.9959387   -2.1121819   -4.0003123 
C    -1.0299728   -0.6297929   -2.6080977 
C    -2.5698067   -1.3166828    0.1192429 
C    -3.2087385   -2.3199787   -0.7111415 
H    -2.8199254   -3.3093806   -0.9497676 
C    -4.4439578   -1.7810215   -1.2018029 
H    -5.1345599   -2.2900067   -1.8764034 
C    -4.5929547   -0.4537818   -0.6852094 
H    -5.4180414    0.2294068   -0.8937599 
C    -3.4482768   -0.1620506    0.1258153 
C    -0.3647842   -3.1327528    0.9329763 
C    -1.6424954   -1.0636473    2.8119079 
H    -0.1569436   -1.1674314   -2.2355425 
H    -3.2640561    0.7735879    0.6548086 
C    -1.1937888    3.1095310   -0.2396023 
C     0.8546889    2.4101450   -2.2693813 
H     0.5333011   -3.0842766    1.5747147 
H    -1.8143783    0.0302621    2.7834971 
H    -0.4306032    3.8962310   -0.3983609 
H     1.4900991    3.0509463   -1.6360766 
C    -2.5168607    3.5808469   -0.8645257 
H    -2.8516129    4.5013939   -0.3540933 
H    -2.4166123    3.8113970   -1.9366143 
H    -3.3082784    2.8225530   -0.7408736 
C    -1.3408714    2.9128688    1.2811014 
H    -1.6551769    3.8615865    1.7513683 
H    -2.1056540    2.1548513    1.5221714 
H    -0.3949065    2.5919219    1.7493578 
C     0.1639657    3.2931004   -3.3213365 
H    -0.5485981    2.7137725   -3.9340657 
H    -0.3720876    4.1424827   -2.8654488 
H     0.9274829    3.7147885   -3.9994178 
C     1.7368973    1.3283756   -2.9133363 
H     2.5638270    1.8056685   -3.4673194 
H     2.1768813    0.6582129   -2.1524468 
H     1.1616356    0.7109707   -3.6248178 
C    -1.2747654   -4.2453302    1.4827959 
H    -0.8001752   -5.2235673    1.2875649 
H    -1.4084627   -4.1586035    2.5725000 
H    -2.2733869   -4.2548082    1.0169306 
C     0.1304021   -3.4123575   -0.4996092 
H     0.6765394   -4.3709182   -0.5167289 
H    -0.6960371   -3.4725059   -1.2271493 
H     0.8274861   -2.6252301   -0.8345824 
C    -2.9820440   -1.7454533    3.1523602 
H    -3.3496063   -1.3403705    4.1122844 
H    -3.7549199   -1.5615768    2.3898492 
H    -2.8698448   -2.8340955    3.2734284 
C    -0.5773754   -1.3471456    3.8817393 
H    -0.9775844   -1.0888116    4.8778027 
H    -0.2926634   -2.4131928    3.9034048 
H     0.3320877   -0.7490706    3.7209276 
