112
Energy =
C     2.6082607    0.6378250   -2.2464727 
C     1.4597956    0.8560506   -3.0597520 
C     0.6050759    1.9696173   -2.8951585 
H     1.1565586    0.0656467   -3.7585757 
Pd    0.7764488    0.6974529   -0.9749013 
P    -1.3720301    0.6882828    0.0298457 
P     1.6169071   -0.4666954    0.8498876 
H     3.1134679    1.5199611   -1.8257167 
H     1.0242795    2.8679570   -2.4167690 
C     5.1319008   -2.8053458   -2.8132645 
C     3.7540835   -2.9000779   -3.0699885 
C     2.9198671   -1.7984348   -2.8532991 
C     3.4485527   -0.5673641   -2.3984310 
C     4.8316265   -0.4937972   -2.1278475 
C     5.6642652   -1.6006946   -2.3335413 
H     5.7838742   -3.6684576   -2.9818821 
H     3.3298314   -3.8395582   -3.4403113 
H     1.8427687   -1.8957527   -3.0311408 
H     5.2582738    0.4470752   -1.7650329 
H     6.7344591   -1.5199630   -2.1187621 
C    -2.7428424    2.7123014   -5.4998289 
C    -2.3934559    1.3907164   -5.1755573 
C    -1.3212839    1.1366013   -4.3133180 
C    -0.5733372    2.1995782   -3.7534730 
C    -0.9470582    3.5233291   -4.0779075 
C    -2.0149828    3.7768794   -4.9475505 
H    -3.5801086    2.9098437   -6.1767760 
H    -2.9603985    0.5545364   -5.5980587 
H    -1.0635157    0.1015352   -4.0642800 
H    -0.3800236    4.3603510   -3.6551890 
H    -2.2811491    4.8099670   -5.1930832 
Fe    0.0459506   -3.7567690    0.7619602 
C     0.4939457   -1.8216919    1.3167928 
C    -0.9159079   -1.9445909    0.9302408 
C    -1.4993229   -2.9314600    1.8016277 
C    -0.4979181   -3.4313068    2.6944398 
C     0.7323266   -2.7683260    2.3908793 
C    -0.1302566   -4.5633728   -1.1384904 
C     1.2427938   -4.5326111   -0.7377843 
C     1.3729907   -5.2909862    0.4738165 
C     0.0725626   -5.7885809    0.8215938 
C    -0.8588099   -5.3325961   -0.1727697 
C     1.7231365    0.6857697    2.2963644 
C     1.9295242    2.0543934    2.0294623 
C     2.2091916    2.9486776    3.0737233 
C     2.2753596    2.4831634    4.3944840 
C     2.0500994    1.1243863    4.6696269 
C     1.7806512    0.2270800    3.6279305 
C     3.3365788   -1.1257372    0.8997061 
C     4.4045832   -0.2472717    1.1869391 
C     5.7149877   -0.7349911    1.2627401 
C     5.9789009   -2.0956512    1.0433562 
C     4.9237870   -2.9662806    0.7387810 
C     3.6102633   -2.4837817    0.6662205 
C    -1.7498807   -1.1519963   -0.0689300 
H    -2.5405851   -3.2590439    1.7615115 
H    -0.6379515   -4.2099292    3.4462820 
H     1.6941511   -2.9422725    2.8773685 
H    -0.5377617   -4.1059291   -2.0382052 
H     2.0458199   -4.0199737   -1.2680401 
H     2.2921738   -5.4550416    1.0392869 
H    -0.1699897   -6.3914200    1.6985072 
H    -1.9315175   -5.5345658   -0.1849642 
H     1.8782893    2.4143812    0.9937231 
H     1.6199862   -0.8304656    3.8543932 
H     4.2159712    0.8145841    1.3734545 
H     2.7789363   -3.1548421    0.4568449 
H     2.3722632    4.0086799    2.8537496 
H     2.0908528    0.7598412    5.7012245 
H     6.5335259   -0.0469392    1.4983755 
H     5.1190384   -4.0282990    0.5572846 
H     2.4929204    3.1788910    5.2112108 
H     7.0043834   -2.4738286    1.1069546 
H    -2.8001476   -1.2619114    0.2544501 
C    -1.6673936   -1.6352496   -1.5281050 
H    -0.6229935   -1.6295590   -1.8849533 
H    -2.0574403   -2.6623182   -1.5931234 
H    -2.2741184   -0.9993968   -2.1943440 
H    -2.4459634    1.1564936   -2.0021108 
H    -0.7294447    0.5391189    2.2933841 
C    -3.7440229    3.6306944   -1.8269102 
C    -2.5721700    3.0427576   -1.0245861 
C    -2.7137782    1.5008701   -0.9860459 
C    -4.1852877    1.0600338   -0.6937438 
C    -5.0266249    2.2112304   -0.1196880 
C    -5.0931437    3.4093456   -1.0919745 
H    -3.7627163    3.1439356   -2.8186312 
H    -3.5750445    4.7049200   -2.0156444 
H    -2.5753585    3.4726191   -0.0103784 
H    -1.6032830    3.3101642   -1.4768119 
H    -4.6393144    0.7218789   -1.6434804 
H    -4.2247210    0.1890142   -0.0171722 
H    -6.0427355    1.8509908    0.1184475 
H    -4.5851156    2.5348012    0.8419457 
H    -5.3767292    4.3158684   -0.5282160 
H    -5.8939925    3.2423070   -1.8345784 
C    -2.7802381    0.6374126    4.0508982 
C    -2.8633838    0.4598498    2.5217442 
C    -1.6030598    1.0579742    1.8541026 
C    -1.4710247    2.5532316    2.2159155 
C    -1.3844656    2.7299408    3.7416270 
C    -2.6050444    2.1132254    4.4428928 
H    -1.9218243    0.0491136    4.4312267 
H    -3.6875684    0.2163667    4.5203836 
H    -3.7668695    0.9710762    2.1439386 
H    -2.9680420   -0.6122662    2.2865879 
H    -0.5912250    2.9997156    1.7208977 
H    -2.3609118    3.0956571    1.8475652 
H    -0.4620471    2.2429894    4.1066529 
H    -1.2958002    3.8036723    3.9866174 
H    -3.5157059    2.6758159    4.1565256 
H    -2.5074049    2.2089538    5.5391575 
