94
Energy =
C     0.0803000    1.1791293    2.7445331 
C    -0.6017821    2.1462036    1.9722708 
C    -1.9147891    1.8976563    1.4619093 
H    -0.0573535    3.0285411    1.6137501 
Pd   -0.5153769    0.3710701    0.6848630 
P    -1.7418891   -0.3564192   -1.1427016 
P     1.4862171   -0.7797320    0.2839259 
H    -0.5284756    0.4011628    3.2313471 
H    -2.5850522    1.2656323    2.0632880 
C     4.1157048    1.3897154    4.2130105 
C     3.5983577    2.4530049    3.4547250 
C     2.2880104    2.4045280    2.9721972 
C     1.4595353    1.2911008    3.2438893 
C     1.9855862    0.2409373    4.0325284 
C     3.3019884    0.2844565    4.5033365 
H     5.1447641    1.4302716    4.5847849 
H     4.2234825    3.3241617    3.2351420 
H     1.9066616    3.2426617    2.3816897 
H     1.3542769   -0.6206623    4.2690158 
H     3.6889698   -0.5433364    5.1066998 
C    -3.8751630    4.6324733   -1.2248767 
C    -2.4892489    4.4268252   -1.3253076 
C    -1.8467147    3.5336159   -0.4624717 
C    -2.5771349    2.8285557    0.5231566 
C    -3.9704056    3.0338950    0.6019451 
C    -4.6125153    3.9307913   -0.2605241 
H    -4.3779857    5.3304739   -1.9020538 
H    -1.9098499    4.9603751   -2.0861851 
H    -0.7695370    3.3559263   -0.5671176 
H    -4.5499113    2.4887199    1.3548121 
H    -5.6944063    4.0799465   -0.1811014 
Fe    0.9557167   -1.0975666   -3.0147237 
C    -0.7937320   -0.1704867   -2.6759919 
C    -0.8736182   -0.9607153   -3.8844370 
H    -1.5569768   -1.7931596   -4.0588556 
C     0.1292579   -0.4780140   -4.7871569 
H     0.3464708   -0.8882783   -5.7751298 
C     0.8309519    0.6012253   -4.1520242 
H     1.6721749    1.1531589   -4.5751594 
C     0.2703461    0.7983354   -2.8483561 
C     1.8424448   -1.6443716   -1.2860056 
C     2.8358376   -1.2490077   -2.2608112 
H     3.5474737   -0.4301934   -2.1462545 
C     2.6986314   -2.1057834   -3.4006144 
H     3.2870366   -2.0438844   -4.3178357 
C     1.6326033   -3.0294329   -3.1439012 
H     1.2679246   -3.7954346   -3.8305944 
C     1.0965892   -2.7510837   -1.8452742 
H     0.5997182    1.5191338   -2.0967523 
H     0.2751678   -3.2787220   -1.3638126 
C    -3.3346869    0.3549813   -1.6053329 
C    -3.7509452    1.0888291   -2.6960313 
C    -5.1491418    1.3250975   -2.5088045 
C    -5.5007739    0.7295042   -1.3176633 
H    -3.1251558    1.4069194   -3.5293423 
H    -5.8183930    1.8722323   -3.1725348 
O    -4.3966466    0.1407801   -0.7555625 
C    -6.7743799    0.6306678   -0.5533537 
H    -6.7013393    1.1701862    0.4091289 
H    -7.5966512    1.0707910   -1.1374673 
H    -7.0230280   -0.4213898   -0.3275760 
C    -2.1702347   -2.1026419   -0.9574585 
C    -3.0208428   -2.9536422   -1.6302367 
C    -2.9033328   -4.2317712   -1.0000232 
C    -1.9993944   -4.0897648    0.0307768 
H    -3.6605947   -2.6829624   -2.4708375 
H    -3.4294532   -5.1487902   -1.2662228 
O    -1.5513480   -2.7930334    0.0682955 
C    -1.4571977   -5.0207982    1.0601091 
H    -0.3536965   -5.0533958    1.0266684 
H    -1.7522736   -4.7052549    2.0775217 
H    -1.8469382   -6.0349795    0.8857136 
C     2.7888911    0.4770091    0.3143413 
C     4.1393170    0.4894202    0.5820802 
C     4.6035413    1.8060955    0.2672477 
C     3.5148354    2.5222114   -0.1782904 
H     4.7157956   -0.3515532    0.9639386 
H     5.6204077    2.1858414    0.3685045 
C     1.9075361   -1.9457165    1.5903891 
C     1.0828946   -2.6607964    2.4334281 
C     1.9386949   -3.4565536    3.2589464 
C     3.2334458   -3.1811955    2.8710888 
H    -0.0053329   -2.6017983    2.4515038 
H     1.6419817   -4.1464529    4.0490949 
O     2.4023620    1.7210044   -0.1544162 
O     3.2202595   -2.2710795    1.8468547 
C     3.3149880    3.9258508   -0.6353593 
H     2.8979026    3.9578247   -1.6581670 
H     2.6136571    4.4652388    0.0279984 
H     4.2760991    4.4617955   -0.6334779 
C     4.5703819   -3.6488197    3.3319722 
H     5.1304593   -4.1237027    2.5067120 
H     5.1756181   -2.8024294    3.7042737 
H     4.4524298   -4.3811597    4.1447797 
