124
Energy =
C     2.5598277   -0.8679528   -2.1293700 
C     2.3692326    0.5174260   -2.3948430 
C     2.6715784    1.5104009   -1.4372968 
H     1.8627548    0.8125571   -3.3217207 
Pd    1.0796577    0.0037299   -0.6740804 
P    -0.2709458    1.4441340    0.6407377 
P     0.0809994   -1.9871664    0.0446266 
H     3.3434880   -1.1310949   -1.4053681 
H     3.3533075    1.2298605   -0.6210578 
C     1.6768118   -4.0110544   -4.9473273 
C     1.0776910   -2.7495875   -5.1002140 
C     1.3432703   -1.7242485   -4.1860400 
C     2.2324465   -1.9283691   -3.1043806 
C     2.8407443   -3.1979270   -2.9753455 
C     2.5603105   -4.2301391   -3.8795327 
H     1.4604853   -4.8138271   -5.6592586 
H     0.3899506   -2.5679693   -5.9325622 
H     0.8404817   -0.7593522   -4.3095347 
H     3.5519764   -3.3687753   -2.1598376 
H     3.0426804   -5.2054421   -3.7566671 
C     2.2857252    5.7685434   -1.9857680 
C     1.7737724    4.8916342   -2.9563490 
C     1.8907825    3.5073231   -2.7942400 
C     2.5310726    2.9607796   -1.6568796 
C     3.0728802    3.8600744   -0.7075810 
C     2.9435341    5.2451712   -0.8623969 
H     2.1871049    6.8511481   -2.1141705 
H     1.2784377    5.2917655   -3.8470435 
H     1.4721754    2.8473428   -3.5600667 
H     3.6136930    3.4634179    0.1580734 
H     3.3693930    5.9180981   -0.1109170 
Fe   -3.0543516    0.3804002    2.7131206 
C    -1.8418674    0.6161794    1.0846104 
C    -1.9418403   -0.7919061    1.4655373 
C    -3.3319997   -1.1615846    1.4114306 
C    -4.0976511   -0.0229539    1.0099605 
C    -3.1943982    1.0697398    0.8169486 
C    -3.1580500    1.9651769    4.0012122 
C    -4.4341168    1.3207903    3.8840407 
C    -4.2807208   -0.0476429    4.2895408 
C    -2.9109973   -0.2496684    4.6630098 
C    -2.2176100    0.9936132    4.4875791 
C    -0.8271370   -1.7833095    1.6879048 
H    -3.7286628   -2.1465927    1.6667156 
H    -5.1838580    0.0233036    0.9140164 
H    -3.4898402    2.0759457    0.5258734 
H    -2.9466754    3.0095148    3.7664361 
H    -5.3550035    1.7818944    3.5221896 
H    -5.0639828   -0.8078556    4.2887931 
H    -2.4773043   -1.1875155    5.0148497 
H    -1.1642256    1.1750868    4.7035660 
H     0.2602950    3.3444394   -0.6808313 
C    -1.9141722    5.1360134   -0.8683634 
C    -1.5735446    4.0652789    0.1865422 
C    -0.7304746    2.9215586   -0.4284716 
C    -1.3493594    2.3615691   -1.7396625 
C    -1.7441170    3.4634229   -2.7384030 
C    -2.6302084    4.5323646   -2.0840603 
H    -0.9769921    5.6239951   -1.2018582 
H    -2.5321166    5.9215052   -0.3974728 
H    -2.5100698    3.6770509    0.6223384 
H    -1.0218286    4.5392561    1.0094039 
H    -0.6298642    1.6602318   -2.2052482 
H    -2.2465866    1.7630714   -1.4989624 
H    -0.8321019    3.9494343   -3.1282885 
H    -2.2555393    3.0004829   -3.6017508 
H    -3.5893601    4.0789619   -1.7624190 
H    -2.8826579    5.3208234   -2.8152679 
H     0.1136234    1.1765246    2.9433854 
C     0.9010604    3.4949598    4.2259550 
C     0.2519928    3.3171807    2.8389284 
C     0.5628151    1.9218863    2.2631306 
C     2.0860755    1.6831323    2.2096027 
C     2.7281131    1.8603979    3.5959161 
C     2.4163962    3.2471942    4.1804342 
H     0.4370857    2.7876069    4.9411743 
H     0.6833771    4.5093503    4.6053408 
H     0.6498974    4.0911781    2.1559787 
H    -0.8378648    3.4667268    2.9090201 
H     2.3009522    0.6745494    1.8053000 
H     2.5324855    2.4040739    1.5026724 
H     2.3391671    1.0767586    4.2763968 
H     3.8196390    1.7038343    3.5247110 
H     2.8940978    4.0236300    3.5503249 
H     2.8527816    3.3473215    5.1899658 
H    -2.0648652   -3.0135472   -0.4165431 
C    -2.0192755   -4.1773631   -2.9617359 
C    -0.8499978   -3.7423128   -2.0577030 
C    -1.2837904   -2.6150983   -1.0949576 
C    -1.8838246   -1.4274491   -1.8841640 
C    -3.0527203   -1.8749482   -2.7762500 
C    -2.6228901   -2.9950170   -3.7354239 
H    -2.8060875   -4.6467890   -2.3382841 
H    -1.6626796   -4.9551957   -3.6607161 
H    -0.0161826   -3.3873393   -2.6860131 
H    -0.4814589   -4.6186844   -1.4993415 
H    -2.2148973   -0.6370429   -1.1915734 
H    -1.0822363   -0.9886584   -2.5110182 
H    -3.8818562   -2.2317759   -2.1335714 
H    -3.4413227   -1.0058733   -3.3380114 
H    -1.8656457   -2.5985243   -4.4392711 
H    -3.4794555   -3.3335881   -4.3453672 
H     1.4722075   -3.7270012   -0.7451968 
C     1.6029144   -5.8255374    1.0204997 
C     0.6320488   -4.6294119    1.0350016 
C     1.2549202   -3.4218954    0.2971895 
C     2.6028784   -3.0273339    0.9434009 
C     3.5730127   -4.2240165    0.9384494 
C     2.9604454   -5.4497006    1.6369949 
H     1.7492857   -6.1573228   -0.0263280 
H     1.1533551   -6.6762403    1.5631678 
H     0.4225858   -4.3508524    2.0853983 
H    -0.3347465   -4.9151648    0.5833954 
H     3.0429953   -2.1661646    0.4109620 
H     2.4421966   -2.6997272    1.9858502 
H     3.8199398   -4.4881484   -0.1087177 
H     4.5226295   -3.9360210    1.4240659 
H     2.8203388   -5.2225376    2.7125148 
H     3.6555635   -6.3063284    1.5845460 
H    -1.3081516   -2.7592842    1.8774275 
C     0.1373908   -1.4823816    2.8483797 
H    -0.4319238   -1.0737799    3.6977997 
H     0.6495608   -2.3984955    3.1831652 
H     0.9117150   -0.7523302    2.5655934 
