142
Energy =
C     2.7900962    1.8536374   -1.4209749 
C     3.2331823    0.5182394   -1.1759933 
C     2.7354318   -0.5704107   -1.9250465 
H     3.8781052    0.3224257   -0.3099658 
Pd    1.0671451    0.5685766   -0.7840804 
P    -0.0640198   -1.2844106    0.1453981 
P    -0.4836213    2.2037990   -0.1826793 
H     2.4887137    2.1069830   -2.4483173 
H     2.2567271   -0.3292800   -2.8873939 
C     4.0573858    5.1910214    0.9919817 
C     3.8857785    3.9276785    1.5815615 
C     3.4843903    2.8393107    0.8006877 
C     3.2295809    2.9884661   -0.5834029 
C     3.4087639    4.2634992   -1.1613950 
C     3.8248770    5.3508536   -0.3815178 
H     4.3556744    6.0484052    1.6025382 
H     4.0526164    3.7926701    2.6544515 
H     3.3581539    1.8580938    1.2723917 
H     3.2220560    4.4040355   -2.2303718 
H     3.9545236    6.3322802   -0.8486986 
C     3.8540485   -4.7063446   -1.5829846 
C     3.1286301   -4.2471076   -2.6926419 
C     2.7770751   -2.8973404   -2.7861022 
C     3.1284807   -1.9777341   -1.7695403 
C     3.8696142   -2.4543581   -0.6633970 
C     4.2297822   -3.8015867   -0.5768560 
H     4.1351593   -5.7618673   -1.5064207 
H     2.8427641   -4.9405767   -3.4903875 
H     2.2292015   -2.5413080   -3.6643632 
H     4.1560592   -1.7745983    0.1435173 
H     4.8046423   -4.1498843    0.2857825 
Fe   -4.4646612    0.1877584   -2.0596153 
C    -2.5425934    0.7988300   -1.6382625 
C    -2.9097871   -0.3497630   -0.8275749 
C    -3.2899655   -1.4103380   -1.7310261 
H    -3.6187081   -2.4032876   -1.4240623 
C    -3.1316114   -0.9484149   -3.0760334 
H    -3.3523860   -1.5193595   -3.9794216 
C    -2.6796951    0.4093504   -3.0216662 
H    -2.4956428    1.0618424   -3.8786880 
C    -5.7827659    1.7187513   -2.4509965 
H    -5.5460254    2.7540821   -2.7002794 
C    -6.0098909    1.1893904   -1.1363824 
H    -5.9854480    1.7550782   -0.2032215 
C    -6.3118868   -0.2085924   -1.2680995 
H    -6.5269564   -0.9041161   -0.4547323 
C    -6.2714780   -0.5402255   -2.6625669 
H    -6.4309339   -1.5319257   -3.0901244 
C    -5.9421002    0.6502869   -3.3931010 
H    -5.8139114    0.7240928   -4.4746333 
C    -2.7664920   -0.5201960    0.6454813 
C    -1.5323487   -0.9467070    1.2213064 
C    -1.4332491   -1.1076681    2.6179902 
H    -0.4801065   -1.4091987    3.0633934 
C    -2.5443613   -0.8900374    3.4449354 
H    -2.4494550   -1.0150928    4.5281373 
C    -3.7692020   -0.5111457    2.8818052 
H    -4.6405153   -0.3407799    3.5204461 
C    -3.8679846   -0.3208094    1.4974559 
H    -4.8118160   -0.0060280    1.0465549 
C     1.1851010   -2.0552393    1.2638264 
C     2.0795023   -1.2132943    1.9596393 
H     2.0018471   -0.1273892    1.8404880 
C     3.0827415   -1.7342059    2.7900435 
C     3.1703955   -3.1401548    2.9293267 
C     2.2862136   -4.0106648    2.2543425 
C     1.3083219   -3.4468141    1.4162171 
H     0.6461088   -4.1220084    0.8677414 
C    -0.6288157   -2.6219955   -0.9607971 
C    -1.3667571   -3.7152367   -0.4613635 
H    -1.6374158   -3.7552943    0.6001499 
C    -1.8003441   -4.7402496   -1.3151062 
C    -1.4864983   -4.6399235   -2.6933762 
C    -0.7916191   -3.5310345   -3.2253226 
C    -0.3691679   -2.5306918   -2.3350280 
H     0.1269823   -1.6364981   -2.7259601 
C    -0.8141407    2.2042916    1.6330201 
C     0.3129885    2.0203172    2.4545030 
H     1.2979714    1.8858681    2.0006313 
C     0.1895575    2.0314925    3.8499997 
C    -1.0585953    2.2315887    4.4511773 
H    -1.1549267    2.2339554    5.5403659 
C    -2.1813709    2.4174934    3.6339251 
C    -2.0667006    2.4077140    2.2379156 
H    -2.9663122    2.5437459    1.6439773 
C     0.0320211    3.9588658   -0.4730003 
C     0.3217018    4.8474386    0.5773917 
H     0.2622052    4.5248613    1.6189634 
C     0.7093361    6.1654750    0.2999948 
C     0.7940351    6.6275609   -1.0195135 
H     1.0917598    7.6578873   -1.2304714 
C     0.5298989    5.7364489   -2.0672395 
C     0.1704233    4.4091892   -1.7999857 
H     0.0025142    3.7336570   -2.6453524 
C    -2.0661176    2.1754932   -1.2201482 
H    -1.6441916    2.6144141   -2.1417519 
C    -3.1608506    3.1455861   -0.7298036 
H    -3.7689860    3.4536184   -1.5928273 
H    -3.8360067    2.6484139   -0.0190791 
H    -2.7359524    4.0538091   -0.2684809 
C     1.0330020    7.1083366    1.4406308 
F     1.3736996    6.4309651    2.5632332 
F     2.0690062    7.9214042    1.1214774 
F    -0.0202925    7.8983495    1.7467116 
C     0.7442830    6.1699392   -3.5006685 
F    -0.0725936    5.5037506   -4.3509674 
F     0.5384347    7.4905216   -3.6670549 
F     2.0223319    5.9074101   -3.8950431 
C     1.3951573    1.7297813    4.7085244 
F     1.5076059    0.3908985    4.9211906 
F     2.5493810    2.1308899    4.1090921 
F     1.3271198    2.3242742    5.9138285 
C    -3.5308997    2.6377867    4.2852785 
F    -4.5435965    2.5689541    3.3869355 
F    -3.7678467    1.7028928    5.2395958 
F    -3.5971017    3.8456990    4.8849792 
C     4.0575493   -0.8513795    3.5308840 
H     3.9257052   -0.9565992    4.6212412 
H     5.1006429   -1.1340764    3.3062701 
H     3.9167913    0.2079824    3.2701948 
C     2.3858832   -5.5077632    2.4261603 
H     2.7700024   -5.7609132    3.4276968 
H     1.4023946   -5.9862258    2.2893791 
H     3.0718708   -5.9491955    1.6782241 
C    -2.6075892   -5.9123800   -0.8096531 
H    -2.9599500   -5.7379605    0.2197030 
H    -3.4761732   -6.0973836   -1.4638227 
H    -2.0069831   -6.8408725   -0.8079455 
C    -0.5477250   -3.4148813   -4.7109151 
H     0.3829320   -3.9344586   -5.0094291 
H    -1.3737384   -3.8748246   -5.2776769 
H    -0.4481809   -2.3587279   -5.0117256 
O     4.1105438   -3.6346236    3.8054065 
O    -1.9662304   -5.6116141   -3.5440856 
C     5.3108902   -4.1688215    3.2340990 
H     5.9601699   -4.4427067    4.0787135 
H     5.1108615   -5.0697413    2.6241445 
H     5.8242007   -3.4139682    2.6074300 
C    -1.0507625   -6.6684548   -3.8642687 
H    -1.5894951   -7.3528199   -4.5362468 
H    -0.1502332   -6.2817579   -4.3786437 
H    -0.7369655   -7.2151219   -2.9547084 
