116
Energy =
C    -2.6337412   -2.0378254   -0.5429139 
C    -2.6348708   -0.9620263   -1.4509436 
C    -1.5329499   -0.7660698   -2.3375767 
H    -3.4539967   -0.2318543   -1.4469795 
Pd   -0.8710126   -0.4813020   -0.2376224 
P     1.2257617    0.5648961   -0.7722570 
P    -0.7952582   -0.1659696    2.1952970 
H    -1.8985059   -2.8347685   -0.7274959 
H    -0.9807562   -1.6697084   -2.6322563 
C    -5.8844951   -3.3003816    1.9655236 
C    -4.7803203   -4.1371888    1.7441992 
C    -3.7277848   -3.7057053    0.9291242 
C    -3.7524518   -2.4269334    0.3226115 
C    -4.8835881   -1.6029513    0.5392964 
C    -5.9339600   -2.0355038    1.3537838 
H    -6.7092692   -3.6342393    2.6031693 
H    -4.7417504   -5.1301068    2.2035805 
H    -2.8745147   -4.3687698    0.7464550 
H    -4.9414885   -0.6147191    0.0739056 
H    -6.7999098   -1.3847466    1.5126800 
C    -1.5818839    2.3659629   -5.2925843 
C    -1.9142779    2.6579431   -3.9584981 
C    -1.9015149    1.6455483   -2.9931620 
C    -1.5439501    0.3238405   -3.3394918 
C    -1.2218619    0.0409116   -4.6844441 
C    -1.2450019    1.0529467   -5.6537524 
H    -1.5879077    3.1595198   -6.0466626 
H    -2.1758297    3.6814975   -3.6703835 
H    -2.1367573    1.8796050   -1.9482891 
H    -0.9544982   -0.9820950   -4.9714104 
H    -0.9926928    0.8162570   -6.6924856 
Fe    2.3545338   -2.4047221    0.6485482 
C     2.3224094   -0.3702033    0.3486176 
C     2.0430298   -0.6790114    1.7455380 
C     3.1693333   -1.4327507    2.2410242 
C     4.1333776   -1.5832240    1.1968564 
C     3.6156338   -0.9407967    0.0289409 
C     2.9279013   -4.3578019    0.5707327 
C     1.7436456   -4.2193481    1.3694488 
C     0.7188735   -3.6577496    0.5362415 
C     1.2664513   -3.4498320   -0.7669034 
C     2.6347944   -3.8768387   -0.7497946 
C     1.0347018   -0.1161151    2.7337008 
H     3.2608575   -1.8185637    3.2589607 
H     5.0790746   -2.1240503    1.2633739 
H     4.1160124   -0.9061370   -0.9392761 
H     3.8906207   -4.7410455    0.9135256 
H     1.6476574   -4.4966656    2.4204483 
H    -0.3010832   -3.4289215    0.8290429 
H     0.7280856   -3.0354777   -1.6181306 
H     3.3361279   -3.8331048   -1.5851834 
H     1.0337175   -0.8478817    3.5545975 
C     1.5784281    1.1926307    3.3509647 
H     2.5679638    0.9905598    3.7954052 
H     1.7169098    1.9840981    2.5986459 
H     0.9181935    1.5725698    4.1466501 
C    -1.4452166   -1.3870808    3.5773572 
C    -1.7702852    1.4894021    2.4925862 
C    -0.9053298   -1.0391616    4.9896414 
H    -1.4211303   -1.6967041    5.7131416 
H     0.1731234   -1.2410422    5.1011149 
H    -1.0952040   -0.0017241    5.2947446 
C    -2.0007360    1.9175891    3.9559773 
H    -2.5347130    2.8858489    3.9476419 
H    -2.6236484    1.2095965    4.5213887 
H    -1.0563785    2.0730142    4.5023794 
C    -2.9847713   -1.4375036    3.6402113 
H    -3.2780455   -2.2838719    4.2872070 
H    -3.4239762   -0.5278647    4.0771975 
H    -3.4338166   -1.6092564    2.6532999 
C    -0.9364181   -2.7920494    3.2154815 
H    -1.1625492   -3.4866656    4.0451500 
H    -1.4452473   -3.1701316    2.3167424 
H     0.1524697   -2.8054523    3.0437831 
C    -1.0630978    2.6381913    1.7608095 
H    -1.7183318    3.5284769    1.7699361 
H    -0.1127020    2.9244041    2.2335081 
H    -0.8829428    2.3674283    0.7107210 
C    -3.1354659    1.2985006    1.7818308 
H    -3.7419729    0.4853340    2.2019906 
H    -3.7144912    2.2358910    1.8748271 
H    -2.9848398    1.0954245    0.7058709 
H     1.3174217    2.3339361    0.7846235 
C     0.9888928    4.8073673   -0.2936887 
C     0.7369338    3.4415969   -0.9599411 
C     1.5978699    2.3502730   -0.2823888 
C     3.0998744    2.7077758   -0.3435586 
C     3.3436083    4.0795031    0.3159064 
C     2.4811954    5.1776708   -0.3274142 
H     0.6426155    4.7741809    0.7576052 
H     0.3863307    5.5828258   -0.8000374 
H     0.9877267    3.5183813   -2.0297837 
H    -0.3333923    3.1797244   -0.9219092 
H     3.7011863    1.9302558    0.1604159 
H     3.4363579    2.7493556   -1.3964108 
H     3.1039717    4.0073509    1.3956274 
H     4.4155388    4.3379581    0.2477996 
H     2.7971891    5.3172743   -1.3802241 
H     2.6479932    6.1434220    0.1820034 
H     3.1882956    0.5481037   -2.1088501 
C     2.7188096    1.2644159   -4.7398411 
C     1.8327621    1.4586057   -3.4929049 
C     2.1391567    0.3863629   -2.4257353 
C     2.0432771   -1.0318644   -3.0138800 
C     2.9445561   -1.1990403   -4.2490910 
C     2.6156789   -0.1520545   -5.3224045 
H     3.7738563    1.4675978   -4.4674244 
H     2.4383643    2.0178672   -5.4976435 
H     0.7704697    1.4223469   -3.7788307 
H     2.0241878    2.4637719   -3.0905755 
H     2.3171710   -1.7621088   -2.2407218 
H     0.9959769   -1.2315962   -3.3005486 
H     4.0047225   -1.0929040   -3.9429279 
H     2.8335526   -2.2230287   -4.6499010 
H     1.5867536   -0.3208473   -5.6942614 
H     3.2906000   -0.2607539   -6.1900160 
