106
Energy =
C    -3.1147957   -1.0393913   -1.3943781 
C    -3.0844492   -1.7636517   -0.1737941 
C    -2.9734329   -1.0940126    1.0733436 
H    -2.9722351   -2.8539177   -0.2010950 
Pd   -1.2283060   -0.5613392   -0.2588618 
P     0.4014205    0.0587640    1.2995649 
P    -0.0687574    0.3625122   -2.0536992 
H    -3.4767121   -0.0015831   -1.3557024 
H    -3.2864326   -0.0388033    1.1022406 
C    -2.9753588   -2.6724217   -5.3738633 
C    -3.1987484   -1.3040001   -5.1634413 
C    -3.2660098   -0.7948144   -3.8613340 
C    -3.0917538   -1.6385827   -2.7406631 
C    -2.8748292   -3.0172566   -2.9690094 
C    -2.8236799   -3.5274256   -4.2696947 
H    -2.9269580   -3.0738842   -6.3912046 
H    -3.3298737   -0.6296853   -6.0161294 
H    -3.4572078    0.2721321   -3.7059869 
H    -2.7395721   -3.7013665   -2.1246504 
H    -2.6605018   -4.5990335   -4.4254445 
C    -2.8154303   -2.8984462    4.9716629 
C    -2.9774153   -3.7129024    3.8399021 
C    -3.0121032   -3.1460322    2.5619084 
C    -2.9037092   -1.7466748    2.3903638 
C    -2.7462051   -0.9393481    3.5408778 
C    -2.6981002   -1.5087386    4.8164402 
H    -2.7841232   -3.3452677    5.9705695 
H    -3.0782201   -4.7970056    3.9545144 
H    -3.1500399   -3.7992320    1.6943244 
H    -2.6486088    0.1459872    3.4234543 
H    -2.5668545   -0.8669306    5.6933573 
Fe    3.3529344    1.3088362   -2.1587316 
C     1.4129653    1.3149927   -1.5957507 
C     2.2748022    1.0371933   -0.4521398 
C     3.1620610    2.1607138   -0.3136756 
C     2.8686835    3.1156103   -1.3393490 
C     1.7951112    2.6028037   -2.1342933 
C     5.3576784    1.2136595   -2.5509922 
C     4.8363401   -0.1005346   -2.3097570 
C     3.7960287   -0.3506653   -3.2665247 
C     3.6798974    0.8105260   -4.1060444 
C     4.6460915    1.7750783   -3.6639622 
C     2.1358953   -0.0959845    0.5319416 
H     3.9441261    2.2513697    0.4428301 
H     3.3984111    4.0540854   -1.5122938 
H     1.3354702    3.0867163   -2.9973486 
H     6.1426204    1.7077205   -1.9754978 
H     5.1742273   -0.7828239   -1.5280800 
H     3.1908271   -1.2566335   -3.3381009 
H     2.9634024    0.9456364   -4.9164774 
H     4.7932172    2.7733147   -4.0805424 
H     2.8445859    0.0727228    1.3616218 
C     2.3567020   -1.5034258   -0.0409144 
H     3.3840590   -1.5825664   -0.4286961 
H     2.2160008   -2.2782854    0.7308213 
H     1.6661866   -1.7071366   -0.8766985 
C    -1.1154209    1.5867493   -2.8865178 
C    -1.2115349    2.0780185   -4.1717819 
C    -2.2746833    3.0382384   -4.1637166 
C    -2.7548748    3.0706758   -2.8778092 
H    -0.5964229    1.7685867   -5.0153570 
H    -2.6377390    3.6281888   -5.0056376 
H    -3.5425611    3.6340071   -2.3794255 
O    -2.0645856    2.1947299   -2.0900141 
C     0.3333264   -0.8121147   -3.3614844 
C     0.3353374   -2.1911235   -3.3477142 
C     0.7530393   -2.6151442   -4.6497086 
C     0.9704844   -1.4683626   -5.3713309 
H     0.0537298   -2.8188498   -2.5028843 
H     0.8638266   -3.6380773   -5.0084234 
H     1.2873887   -1.2718852   -6.3947119 
O     0.7248110   -0.3654141   -4.6053786 
C     0.0912938    4.6025975    2.0841887 
C     1.2159802    3.9166707    2.5895751 
C     1.3009163    2.5303909    2.3840821 
C     0.2782208    1.8409343    1.6983323 
C    -0.8295211    2.5517812    1.2064433 
C    -0.9347508    3.9447136    1.3862489 
H     0.0214320    5.6869950    2.2346044 
H     2.1808099    1.9913945    2.7532031 
H    -1.6083732    2.0183364    0.6473731 
C     0.6696293   -2.4680865    5.1575518 
C     0.4682127   -3.0977445    3.9151836 
C     0.3627869   -2.2897838    2.7705642 
C     0.4921663   -0.8889084    2.8600927 
C     0.6701180   -0.2841125    4.1193138 
C     0.7588905   -1.0691443    5.2824644 
H     0.7367766   -3.0873249    6.0604631 
H     0.1538094   -2.7556596    1.7995727 
H     0.7203659    0.8055423    4.2055867 
C     2.3112340    4.6686609    3.3127223 
H     3.0723417    3.9839822    3.7215815 
H     2.8191204    5.3738906    2.6294223 
H     1.9010083    5.2647058    4.1471068 
C    -2.1002657    4.7057290    0.7941793 
H    -1.9072311    4.9323743   -0.2715967 
H    -3.0317849    4.1159034    0.8418575 
H    -2.2681011    5.6631320    1.3139834 
C     0.3708455   -4.6027655    3.8150419 
H     1.3782397   -5.0596614    3.8007264 
H    -0.1709240   -5.0265229    4.6773047 
H    -0.1523531   -4.9104644    2.8946234 
C     0.9037803   -0.4268827    6.6442931 
H     1.6807071   -0.9303665    7.2454119 
H     1.1650295    0.6410968    6.5647578 
H    -0.0438523   -0.5001983    7.2107194 
