132
Energy =
C     0.6572467   -0.4943773   -3.4900906 
C     0.5403078    0.8863590   -3.1809817 
C     1.3822052    1.5115826   -2.2266658 
H    -0.3027622    1.4530114   -3.5941015 
Pd    0.2065732   -0.1712167   -1.2709284 
P     0.1890776    0.8146608    0.8429819 
P    -0.5663343   -2.2792552   -0.6029254 
H     1.6335997   -0.9670242   -3.3045065 
H     2.3531863    1.0337314   -2.0296329 
C    -1.7963420   -2.6553027   -6.2995922 
C    -2.2229856   -1.4047574   -5.8203421 
C    -1.4360057   -0.6880147   -4.9139422 
C    -0.1945039   -1.1993380   -4.4658662 
C     0.2334377   -2.4440732   -4.9829111 
C    -0.5601287   -3.1687287   -5.8814136 
H    -2.4187768   -3.2174388   -7.0030924 
H    -3.1812683   -0.9903535   -6.1504112 
H    -1.8028985    0.2717078   -4.5350713 
H     1.2095709   -2.8409653   -4.6833329 
H    -0.2061652   -4.1320032   -6.2635246 
C     1.3489563    5.6968431   -1.2467139 
C     2.4293351    4.8824452   -0.8776125 
C     2.4104744    3.5142058   -1.1747689 
C     1.3140980    2.9347857   -1.8535518 
C     0.2134895    3.7611485   -2.1797717 
C     0.2343091    5.1268312   -1.8842118 
H     1.3658071    6.7688313   -1.0263162 
H     3.2952405    5.3155807   -0.3657846 
H     3.2593022    2.8820271   -0.8915141 
H    -0.6708944    3.3351315   -2.6634214 
H    -0.6271989    5.7506355   -2.1429877 
Fe   -0.3315993   -0.9378544    3.9268528 
C    -0.7322418   -0.1398306    2.0951418 
C    -0.9088072   -1.5842508    2.1022778 
C    -1.9161677   -1.8840284    3.0917980 
C    -2.3386035   -0.6571234    3.7032275 
C    -1.6090699    0.4171290    3.1014421 
C     1.1705048   -2.1846266    4.5481399 
C     1.6751435   -0.8593987    4.3441428 
C     0.9406761    0.0314176    5.2001851 
C    -0.0173122   -0.7473298    5.9325570 
C     0.1221499   -2.1175764    5.5271377 
C    -0.7471756    2.3899398    0.7765341 
C    -0.2600787    3.6413755    1.1871470 
C    -1.0580919    4.7955516    1.0892361 
C    -2.3500343    4.6757676    0.5329154 
C    -2.8544221    3.4343429    0.0767897 
C    -2.0391549    2.3033162    0.2154951 
C     1.8597100    1.1382014    1.5068088 
C     2.0680507    1.9241824    2.6575867 
C     3.3556002    2.1163549    3.1781916 
C     4.4455343    1.4871879    2.5271206 
C     4.2629991    0.6546984    1.3988652 
C     2.9565120    0.5001562    0.9017351 
C    -0.1878468   -2.5833206    1.2278453 
H    -2.2771012   -2.8778437    3.3595185 
H    -3.0655290   -0.5647616    4.5121399 
H    -1.7038823    1.4789955    3.3339938 
H     1.5216707   -3.0855608    4.0414871 
H     2.4704062   -0.5778841    3.6528540 
H     1.0859447    1.1083890    5.2866441 
H    -0.7405263   -0.3635240    6.6543894 
H    -0.4781067   -2.9562954    5.8850796 
H     0.7630213    3.7464170    1.5557888 
H    -2.4137661    1.3334773   -0.1315112 
H     1.2149138    2.3687444    3.1789795 
H     2.7869406   -0.1499111    0.0340418 
H     0.8925877   -2.3497437    1.2753557 
H     0.2529094   -3.2045229   -2.5954406 
H    -2.6079860   -3.6003342   -0.4339043 
C    -4.1589744   -2.8891306   -2.6975839 
C    -2.6689550   -2.6517512   -2.4020651 
C    -2.3825909   -2.6126739   -0.8841346 
C    -3.2678269   -1.5325858   -0.2199065 
C    -4.7605191   -1.7664208   -0.5118980 
C    -5.0407708   -1.8284479   -2.0211730 
H    -4.4485803   -3.8962448   -2.3378934 
H    -4.3138670   -2.8867512   -3.7916264 
H    -2.3655451   -1.6791876   -2.8288112 
H    -2.0598372   -3.4149250   -2.9151749 
H    -3.0966194   -1.4903461    0.8665071 
H    -2.9642114   -0.5485169   -0.6290221 
H    -5.0776988   -2.7163683   -0.0381197 
H    -5.3551932   -0.9648945   -0.0370107 
H    -4.8259355   -0.8382702   -2.4714218 
H    -6.1094847   -2.0363173   -2.2079949 
C     0.6573729   -5.8766316   -2.5738749 
C    -0.1538266   -5.0380948   -1.5665085 
C     0.3704681   -3.5844494   -1.5625885 
C     1.8780058   -3.5320073   -1.2225271 
C     2.6932198   -4.4010875   -2.1977600 
C     2.1604445   -5.8429554   -2.2496345 
H     0.4878047   -5.4788904   -3.5941641 
H     0.2867316   -6.9172134   -2.5743348 
H    -0.0580814   -5.4886971   -0.5641955 
H    -1.2256799   -5.0674862   -1.8273478 
H     2.2349996   -2.4834218   -1.2458254 
H     2.0396449   -3.8983213   -0.1899297 
H     2.6403189   -3.9540866   -3.2099695 
H     3.7589122   -4.3917091   -1.9060266 
H     2.3301745   -6.3278892   -1.2678508 
H     2.7274268   -6.4315008   -2.9927219 
C    -0.4072823   -4.0289840    1.7029971 
H    -0.2462322   -4.0806249    2.7931920 
H    -1.4310883   -4.3830100    1.4953086 
H     0.3010149   -4.7217485    1.2257965 
C    -0.5439942    6.1435000    1.5349899 
H    -0.9561002    6.4203937    2.5235539 
H     0.5543445    6.1389001    1.6183668 
H    -0.8490712    6.9295304    0.8246460 
C    -4.2217713    3.3525487   -0.5601560 
H    -5.0227258    3.3809730    0.2019782 
H    -4.3878782    4.2102674   -1.2333121 
H    -4.3391212    2.4157603   -1.1296710 
O    -3.1010921    5.8141771    0.3309667 
C    -3.9842607    6.1869699    1.3979255 
H    -4.5006334    7.1006767    1.0679660 
H    -4.7306206    5.3950258    1.5985336 
H    -3.4248658    6.3967982    2.3291856 
C     3.5981129    2.9265742    4.4289431 
H     2.6505407    3.2978876    4.8517180 
H     4.1147898    2.3169056    5.1903432 
H     4.2466560    3.7974086    4.2263384 
C     5.4347847   -0.0603162    0.7676196 
H     5.1078891   -0.9861647    0.2655713 
H     5.9299402    0.5708323    0.0056717 
H     6.1901555   -0.3125524    1.5296650 
O     5.6958696    1.6279140    3.0836666 
C     6.5489105    2.6134014    2.4830792 
H     7.4787934    2.6159002    3.0706261 
H     6.7807681    2.3641926    1.4305316 
H     6.0851159    3.6175434    2.5209637 
