112
Energy =
C     2.0044070    2.5401297    0.3788381 
C     0.6836704    3.0422626    0.3174805 
C    -0.2614093    2.7565235    1.3439979 
H     0.3547298    3.5798854   -0.5800965 
Pd    0.4632923    0.8441150    0.2916310 
P    -0.8864459   -0.9204779    1.0996875 
P     1.7029470   -0.5256048   -1.1022337 
H     2.3489144    2.1963705    1.3664526 
H     0.1466175    2.5436216    2.3424529 
C     5.2551780    3.3326610   -2.3189677 
C     5.4677681    2.6254256   -1.1266439 
C     4.3957388    2.3695599   -0.2652876 
C     3.0874829    2.8089546   -0.5773158 
C     2.8903835    3.5179724   -1.7852703 
C     3.9629689    3.7784099   -2.6421078 
H     6.0920643    3.5397829   -2.9937713 
H     6.4721410    2.2790208   -0.8624891 
H     4.5729044    1.8291881    0.6698427 
H     1.8932062    3.8756320   -2.0569669 
H     3.7906126    4.3312183   -3.5707034 
C    -4.3005790    4.2593361    1.3697687 
C    -3.6262167    4.0889131    0.1487893 
C    -2.3158085    3.6021157    0.1287838 
C    -1.6418295    3.2768151    1.3297355 
C    -2.3272325    3.4744021    2.5499833 
C    -3.6427728    3.9542728    2.5705736 
H    -5.3291496    4.6338463    1.3834047 
H    -4.1305899    4.3282636   -0.7931920 
H    -1.8188385    3.4456606   -0.8352945 
H    -1.8165107    3.2582218    3.4950106 
H    -4.1531450    4.0989034    3.5284919 
Fe   -0.9443069   -2.2165226   -2.7778017 
C     0.7987162   -1.9614338   -1.7379262 
C    -0.1330327   -2.7656925   -0.9670092 
C    -0.4542324   -3.9184702   -1.7702505 
C     0.2612094   -3.8373562   -3.0089767 
C     1.0251453   -2.6257968   -3.0032192 
C    -1.4266254   -0.7131895   -4.0828771 
C    -1.7108302   -1.9927011   -4.6597983 
C    -2.6519629   -2.6646880   -3.8125167 
C    -2.9550914   -1.7968971   -2.7145454 
C    -2.1898568   -0.5899836   -2.8716026 
C     3.1945720   -1.2837850   -0.3392376 
C     3.6302279   -0.8268080    0.9200551 
C     4.7275898   -1.4257162    1.5537577 
C     5.3980455   -2.4908449    0.9340633 
C     4.9634010   -2.9603887   -0.3157010 
C     3.8633371   -2.3666931   -0.9492160 
C     2.2387824    0.3336916   -2.6319598 
C     1.2760237    1.1425137   -3.2707488 
C     1.5693082    1.7619491   -4.4915652 
C     2.8380049    1.6002226   -5.0700680 
C     3.8136166    0.8362130   -4.4137051 
C     3.5197398    0.2017144   -3.1972192 
C    -0.4423952   -2.6693594    0.5117395 
H    -1.1421270   -4.7150412   -1.4778358 
H     0.1934610   -4.5471391   -3.8357800 
H     1.6523376   -2.2463305   -3.8126153 
H    -0.7351717    0.0199125   -4.4959391 
H    -1.2607914   -2.3982932   -5.5677799 
H    -3.0501556   -3.6697125   -3.9629476 
H    -3.6508861   -2.0272587   -1.9078394 
H    -2.1925736    0.2673347   -2.1960346 
H     3.0883916   -0.0134810    1.4119823 
H     3.5142619   -2.7579710   -1.9100615 
H     0.2975793    1.2841106   -2.7971265 
H     4.2904071   -0.3859777   -2.6897989 
H    -1.3750652   -3.2353460    0.6858444 
C     0.6824790   -3.3823781    1.2970330 
H     1.6497093   -2.8665004    1.1861556 
H     0.4434563   -3.4739047    2.3689801 
H     0.8034497   -4.4006746    0.8897115 
H     5.0533421   -1.0656310    2.5352126 
H     5.4775330   -3.7995200   -0.7956634 
H     0.8132996    2.3815115   -4.9857648 
H     4.8134964    0.7330388   -4.8474651 
H     6.2530072   -2.9628820    1.4290047 
H     3.0722430    2.0866721   -6.0225474 
H    -2.6611708   -1.3763769   -0.3237648 
C    -4.7909931    0.3763891    0.0865661 
C    -3.3407397    0.4452600    0.5942669 
C    -2.7134214   -0.9558922    0.6972096 
C    -3.5710241   -1.9147764    1.5552494 
C    -5.0173838   -1.9684309    1.0239622 
C    -5.6436623   -0.5660215    0.9510529 
H    -4.7967641    0.0186630   -0.9619249 
H    -5.2208950    1.3935192    0.0769716 
H    -3.3230751    0.9483937    1.5771535 
H    -2.7264893    1.0708792   -0.0740595 
H    -3.1389251   -2.9322419    1.5672355 
H    -3.5913696   -1.5691966    2.6045071 
H    -5.0197461   -2.4256052    0.0143878 
H    -5.6213199   -2.6318860    1.6685892 
H    -5.7225729   -0.1501942    1.9750722 
H    -6.6728998   -0.6278365    0.5549907 
H    -1.0042480   -1.9901840    3.2887865 
C    -1.3923198    0.0380588    5.2025761 
C    -1.5828469    0.0676652    3.6752005 
C    -0.6898636   -0.9764050    2.9694002 
C     0.7874669   -0.7443093    3.3717340 
C     0.9776139   -0.7878116    4.8974931 
C     0.0775954    0.2398973    5.5998277 
H    -1.7479358   -0.9359255    5.5921635 
H    -2.0301561    0.8131026    5.6648170 
H    -1.3247678    1.0682552    3.2880741 
H    -2.6455203   -0.0923722    3.4351470 
H     1.4561874   -1.4703239    2.8839375 
H     1.0873403    0.2554713    2.9938485 
H     0.7365870   -1.8047896    5.2647407 
H     2.0402734   -0.6084182    5.1419945 
H     0.3974682    1.2611534    5.3097848 
H     0.1940091    0.1723711    6.6960285 
