110
Energy =
C    -3.7143009    1.1935047    0.5162471 
C    -2.8311071    1.5837771    1.5302030 
C    -1.7027849    2.4355940    1.2515315 
H    -2.9708646    1.2049915    2.5511251 
Pd   -1.3039251    0.5200096    0.2794977 
P     0.8725435    1.0226584   -0.3313358 
P    -1.0619060   -1.8650775   -0.1611454 
H    -3.5703032    1.6550429   -0.4728407 
H    -1.8431893    3.1797948    0.4554186 
C    -7.3776748   -1.0100870    0.8495539 
C    -6.9067276   -0.5863016   -0.4030832 
C    -5.7131542    0.1365338   -0.4911932 
C    -4.9562540    0.4399574    0.6679746 
C    -5.4610838    0.0270128    1.9266619 
C    -6.6551130   -0.6919339    2.0130723 
H    -8.3137246   -1.5730897    0.9227651 
H    -7.4756936   -0.8136638   -1.3101738 
H    -5.3527303    0.4753490   -1.4690458 
H    -4.9207603    0.2770301    2.8447202 
H    -7.0328951   -1.0009023    2.9929583 
C     1.2144452    3.5200573    4.2351586 
C     0.6529631    2.2320097    4.2391092 
C    -0.3043934    1.8769764    3.2824363 
C    -0.7332623    2.8089908    2.3073334 
C    -0.1819017    4.1092779    2.3387816 
C     0.7917378    4.4593915    3.2817662 
H     1.9735794    3.7917062    4.9759677 
H     0.9754620    1.4945041    4.9815851 
H    -0.7012715    0.8547681    3.2686330 
H    -0.5215194    4.8530605    1.6123952 
H     1.2243112    5.4649605    3.2639146 
Fe    3.6265663   -1.0014105    0.8571047 
C     1.8102455   -0.1031588    0.7248593 
C     1.6322535   -1.5490786    0.6913169 
C     2.2470796   -2.0720825    1.8848275 
C     2.7244530   -0.9820314    2.6797651 
C     2.4594580    0.2336054    1.9773488 
C     4.7423970   -1.7345666   -0.7040211 
C     4.9575819   -0.3206935   -0.5594746 
C     5.4522342   -0.0820652    0.7653490 
C     5.5470962   -1.3467246    1.4385728 
C     5.1056770   -2.3679956    0.5313598 
C     1.6210817    2.6953861   -0.1807413 
C     2.9491972    2.8753722    0.2524997 
C     3.4856524    4.1636111    0.3564136 
C     2.7130907    5.2764892   -0.0088927 
C     1.4186074    5.0994591   -0.5202305 
C     0.8729864    3.8144365   -0.5935153 
C     1.2139365    0.6918740   -2.1112490 
C     0.4659134    1.4013708   -3.0727731 
C     0.6648750    1.1648433   -4.4354961 
C     1.6043504    0.2049150   -4.8492832 
C     2.3675241   -0.4898013   -3.8991293 
C     2.1749012   -0.2411174   -2.5343650 
C     0.8060979   -2.3387963   -0.3046726 
H     2.3420988   -3.1261040    2.1462420 
H     3.2421337   -1.0631266    3.6370943 
H     2.6861944    1.2359832    2.3383493 
H     4.3838187   -2.2474538   -1.5988517 
H     4.7786869    0.4408750   -1.3210546 
H     5.7119818    0.8893861    1.1905867 
H     5.8763048   -1.5021055    2.4674780 
H     5.0497111   -3.4365139    0.7467669 
H     3.5620343    2.0060238    0.5033453 
H    -0.1517638    3.6860682   -0.9556960 
H    -0.2919556    2.1273129   -2.7602732 
H     2.7617190   -0.7697486   -1.7801974 
H     1.0130619   -1.9579200   -1.3202222 
C     1.1891593   -3.8295574   -0.2674498 
H     2.2750765   -3.9092418   -0.4533987 
H     0.9885352   -4.2852061    0.7144582 
H     0.6657681   -4.4211681   -1.0286580 
C     3.2411209    6.6747006    0.2239328 
F     2.8695397    7.1190274    1.4562619 
F     4.5896330    6.7222287    0.1722075 
F     2.7545075    7.5538601   -0.6790036 
H     4.5087808    4.3072105    0.7156774 
H     0.8330235    5.9689137   -0.8325756 
H     0.0842924    1.7133794   -5.1826507 
H     3.1119163   -1.2209054   -4.2281817 
C     1.7370391   -0.1335457   -6.3185341 
F     2.9789110   -0.5728740   -6.6213674 
F     0.8667546   -1.1190128   -6.6594025 
F     1.4654456    0.9310467   -7.1049366 
C    -1.8507583   -2.3857033   -1.8357028 
C    -1.8067866   -2.8740209    1.2986746 
C    -1.4337540   -1.3086542   -2.8595046 
H    -1.9195791   -1.5231671   -3.8289995 
H    -1.7419907   -0.2998355   -2.5336482 
H    -0.3457771   -1.2997591   -3.0356747 
C    -2.0339210   -4.3694429    0.9955379 
H    -2.3852865   -4.8643371    1.9199938 
H    -2.8111032   -4.5222638    0.2296493 
H    -1.1178644   -4.8856491    0.6716732 
C    -1.4293688   -3.7631372   -2.3872714 
H    -2.0138622   -3.9626849   -3.3043121 
H    -0.3655449   -3.7779999   -2.6757643 
H    -1.6218058   -4.5891546   -1.6863367 
C    -3.3839085   -2.3268857   -1.6762846 
H    -3.8494444   -2.4004829   -2.6760500 
H    -3.7796967   -3.1549176   -1.0668241 
H    -3.7066937   -1.3753073   -1.2229397 
C    -0.8473862   -2.7165781    2.4991211 
H    -1.3641724   -3.0602825    3.4137990 
H     0.0643712   -3.3198322    2.3877559 
H    -0.5480437   -1.6634494    2.6493529 
C    -3.1444415   -2.2230680    1.7033208 
H    -3.8949505   -2.2187504    0.9011288 
H    -3.5706691   -2.7814293    2.5568924 
H    -2.9828495   -1.1824831    2.0269011 
