94
Energy =
C     0.5787915    1.8062223    2.4556784 
C    -0.7100322    2.1871800    1.9851715 
C    -1.8122015    1.2996398    2.0701590 
H    -0.8061513    3.1267109    1.4262074 
Pd   -0.1183226    0.4206019    0.8261615 
P    -1.5904358   -0.8588960   -0.4848394 
P     1.9253813   -0.2958666   -0.0483821 
H     0.6169699    1.0590344    3.2638227 
H    -1.7572839    0.5054304    2.8297249 
C     3.9111015    4.5146405    2.2870012 
C     3.1067804    4.3302047    1.1508972 
C     2.0319993    3.4362191    1.1874770 
C     1.7499499    2.6996265    2.3597845 
C     2.5857290    2.8687143    3.4852276 
C     3.6437235    3.7853994    3.4557603 
H     4.7473815    5.2206697    2.2585870 
H     3.3255058    4.8800321    0.2299221 
H     1.4176211    3.2803386    0.2928984 
H     2.3837194    2.2963468    4.3973634 
H     4.2633389    3.9302098    4.3470022 
C    -5.7973850    2.0139693    0.6172729 
C    -5.5273042    0.9337372    1.4692198 
C    -4.2265732    0.7171384    1.9378997 
C    -3.1652492    1.5699460    1.5554763 
C    -3.4542283    2.6560348    0.6961377 
C    -4.7552944    2.8770625    0.2384822 
H    -6.8147098    2.1881019    0.2520612 
H    -6.3337507    0.2605361    1.7787112 
H    -4.0251508   -0.1244179    2.6078354 
H    -2.6540565    3.3296933    0.3749963 
H    -4.9596479    3.7240467   -0.4241651 
Fe    0.6192584   -1.6627025   -2.8400577 
C    -1.0282589   -2.0403971   -1.7536565 
C    -0.0457189   -3.0842898   -1.5540444 
H     0.4118216   -3.3608030   -0.6033670 
C     0.2258122   -3.6767726   -2.8293439 
H     0.9432996   -4.4773389   -3.0179948 
C    -0.5747630   -3.0133806   -3.8172914 
H    -0.5721835   -3.2202189   -4.8890097 
C    -1.3536231   -2.0040224   -3.1633277 
C     1.8801672   -0.4593303   -1.8535696 
C     1.0097665    0.3176747   -2.7130120 
H     0.2985022    1.0763960   -2.3800525 
C     1.2161979   -0.1283424   -4.0589274 
H     0.6850911    0.2370951   -4.9397063 
C     2.2064334   -1.1670877   -4.0438643 
H     2.5571757   -1.7284574   -4.9118857 
C     2.6254086   -1.3762826   -2.6900340 
H    -2.0521310   -1.3120842   -3.6360526 
H     3.3542827   -2.1045100   -2.3345626 
C    -2.6522812    0.2589679   -1.4314379 
C    -3.9240555    0.1878087   -1.9561243 
C    -4.1115555    1.3771701   -2.7283730 
C    -2.9473733    2.1066967   -2.6348048 
H    -4.6303256   -0.6247451   -1.7952004 
H    -5.0060847    1.6685493   -3.2790630 
O    -2.0504305    1.4333722   -1.8466308 
C    -2.5101069    3.4272535   -3.1668354 
H    -2.3292702    4.1458534   -2.3459892 
H    -1.5725043    3.3362737   -3.7440559 
H    -3.2880376    3.8415108   -3.8257233 
C    -2.7139740   -1.8096247    0.5627427 
C    -2.5323213   -2.3408418    1.8229103 
C    -3.7294310   -3.0568931    2.1409356 
C    -4.5703905   -2.9247507    1.0565526 
H    -1.6470669   -2.2195467    2.4475863 
H    -3.9494104   -3.6022883    3.0585952 
O    -3.9516705   -2.1783038    0.0878582 
C    -5.9487087   -3.4011546    0.7540465 
H    -6.6302465   -2.5487257    0.5805689 
H    -5.9598580   -4.0299453   -0.1541313 
H    -6.3343237   -3.9938352    1.5971325 
C     3.4696544    0.6196345    0.1532488 
C     4.2396337    1.3484127   -0.7312979 
C     5.3740234    1.8028690    0.0089454 
C     5.2326708    1.3253220    1.2947090 
H     4.0180818    1.5168649   -1.7850322 
H     6.2062442    2.4012637   -0.3616466 
C     2.3080481   -1.9211833    0.6334673 
C     1.7292567   -2.6276069    1.6677010 
C     2.4462870   -3.8606703    1.7730809 
C     3.4253300   -3.8337074    0.8024505 
H     0.8881789   -2.2910146    2.2741805 
H     2.2702212   -4.6700045    2.4815985 
O     4.0653721    0.6122918    1.3913946 
O     3.3507128   -2.6535843    0.1097386 
C     6.0794642    1.3918607    2.5160468 
H     5.5093497    1.8064215    3.3650300 
H     6.4337708    0.3857937    2.8056190 
H     6.9543669    2.0328066    2.3301405 
C     4.4916300   -4.7870943    0.3869979 
H     4.3614427   -5.0929067   -0.6669136 
H     5.4909436   -4.3256301    0.4800324 
H     4.4579897   -5.6863922    1.0201566 
