124
Energy =
C     2.1146409    1.6702827    1.9124602 
C     2.1157864    0.4489467    2.6421425 
C     2.5851457   -0.7517960    2.0670465 
H     1.6517495    0.4212377    3.6355173 
Pd    0.7988888    0.1171337    0.8887146 
P    -0.2222012   -1.8786051    0.1516242 
P    -0.1892046    1.5140964   -0.7309385 
H     2.8634277    1.7698244    1.1141269 
H     3.2107978   -0.6576812    1.1665518 
C     0.7589680    5.4388317    3.5067377 
C     0.2813836    4.2365618    4.0560103 
C     0.7132692    3.0071774    3.5488449 
C     1.6416893    2.9466198    2.4824209 
C     2.1315641    4.1652668    1.9589524 
C     1.6904674    5.3973048    2.4589372 
H     0.4134122    6.3999728    3.9005869 
H    -0.4416236    4.2597464    4.8780388 
H     0.3010089    2.0828413    3.9679694 
H     2.8796481    4.1434472    1.1586498 
H     2.0837960    6.3273832    2.0354669 
C     3.0860556   -4.5483086    4.0278828 
C     3.5807692   -4.3352024    2.7317991 
C     3.4108111   -3.0914579    2.1131065 
C     2.7270433   -2.0383543    2.7658457 
C     2.2472323   -2.2645483    4.0776114 
C     2.4297914   -3.5036424    4.7004573 
H     3.2216545   -5.5177956    4.5176120 
H     4.1083733   -5.1374952    2.2057613 
H     3.8152496   -2.9232985    1.1087578 
H     1.7251256   -1.4692525    4.6184666 
H     2.0555491   -3.6587324    5.7175043 
Fe   -2.1569869    0.3929040   -3.5581433 
C    -0.6087404    0.5512744   -2.2293016 
C    -1.1930519   -0.7837058   -2.2006784 
C    -1.0956761   -1.3366612   -3.5266303 
C    -0.4635857   -0.3724101   -4.3770052 
C    -0.1745388    0.7905882   -3.5930859 
C    -3.2803488    0.6539936   -5.2343225 
C    -3.9665907   -0.1889138   -4.2950051 
C    -4.1462511    0.5549314   -3.0808417 
C    -3.5711439    1.8571842   -3.2731120 
C    -3.0333734    1.9185643   -4.6005030 
C    -1.6982073   -1.4966281   -0.9763863 
H    -1.4697432   -2.3110477   -3.8433738 
H    -0.2743754   -0.4844504   -5.4460117 
H     0.2869941    1.7006492   -3.9728346 
H    -2.9800587    0.3734959   -6.2455115 
H    -4.2852871   -1.2176377   -4.4732216 
H    -4.6484673    0.1993470   -2.1791031 
H    -3.5553677    2.6653056   -2.5418341 
H    -2.5200780    2.7719856   -5.0470877 
H    -2.2406597   -0.7674290   -0.3529670 
C    -2.6753345   -2.6384526   -1.3087118 
H    -3.4556574   -2.2365859   -1.9780199 
H    -2.1911944   -3.4829775   -1.8204588 
H    -3.1752264   -3.0251749   -0.4067516 
H     1.3241868    3.2511156   -0.2889191 
C     1.7005405    4.9520264   -2.4051464 
C     0.5795693    3.9171631   -2.1856637 
C     1.0767845    2.7832772   -1.2606393 
C     2.3693056    2.1220075   -1.7928641 
C     3.4689154    3.1732364   -2.0257277 
C     2.9800422    4.2987474   -2.9520395 
H     1.9246070    5.4464545   -1.4390763 
H     1.3451469    5.7431454   -3.0894009 
H     0.2562972    3.5106710   -3.1607215 
H    -0.3021202    4.4147182   -1.7463168 
H     2.7139215    1.3474457   -1.0821804 
H     2.1619367    1.5934992   -2.7403863 
H     3.7726191    3.6072280   -1.0522495 
H     4.3667217    2.6859045   -2.4462505 
H     2.7752705    3.8794264   -3.9572293 
H     3.7715598    5.0577983   -3.0832326 
H    -1.9705631    3.0602614   -1.1755539 
C    -2.5845584    4.3672650    1.2533485 
C    -1.3542318    3.5296221    0.8647388 
C    -1.6897432    2.5216390   -0.2501304 
C    -2.8680439    1.6249471    0.1742566 
C    -4.0996116    2.4584427    0.5710510 
C    -3.7611813    3.4733374    1.6744125 
H    -2.8871997    4.9968107    0.3931611 
H    -2.3072080    5.0578812    2.0697771 
H    -1.0054693    2.9664084    1.7476121 
H    -0.5242707    4.1958945    0.5744991 
H    -3.1198138    0.9395634   -0.6520245 
H    -2.5483435    1.0067497    1.0377433 
H    -4.4753584    2.9984151   -0.3203812 
H    -4.9134713    1.7846287    0.8945748 
H    -3.4892262    2.9273068    2.5996370 
H    -4.6469802    4.0869283    1.9168302 
H     1.6105334   -3.3481609    0.1033556 
C     3.1044367   -2.9736011   -2.1882556 
C     1.9672830   -2.1045043   -1.6223311 
C     1.0143941   -2.9507401   -0.7432210 
C     0.4534387   -4.1476619   -1.5401302 
C     1.6023111   -5.0164616   -2.0857174 
C     2.5592232   -4.1877978   -2.9584604 
H     3.7412115   -3.3287307   -1.3533396 
H     3.7521746   -2.3600538   -2.8400030 
H     1.3984304   -1.6485363   -2.4528280 
H     2.3783944   -1.2659386   -1.0290829 
H    -0.2269267   -4.7548229   -0.9170327 
H    -0.1382624   -3.7643657   -2.3910394 
H     2.1606640   -5.4548260   -1.2349429 
H     1.1871532   -5.8628635   -2.6617350 
H     2.0155591   -3.8329477   -3.8563612 
H     3.3914164   -4.8172971   -3.3206259 
H    -1.9165748   -3.3531344    1.0519009 
C    -2.2471268   -2.7210791    3.7373545 
C    -1.4905658   -1.9514387    2.6410739 
C    -1.0200941   -2.9003614    1.5135299 
C    -0.1602021   -4.0522990    2.0717389 
C    -0.9172461   -4.8089183    3.1797410 
C    -1.3920320   -3.8679829    4.2989421 
H    -3.1838069   -3.1320320    3.3114871 
H    -2.5452077   -2.0261177    4.5431723 
H    -0.5999378   -1.4558778    3.0770734 
H    -2.1256294   -1.1457738    2.2262049 
H     0.1142640   -4.7566095    1.2679877 
H     0.7791828   -3.6509543    2.4812293 
H    -1.7934438   -5.3238805    2.7380048 
H    -0.2608505   -5.5965950    3.5917942 
H    -0.5087574   -3.4425953    4.8129429 
H    -1.9607547   -4.4336601    5.0583015 
