116
Energy =
C    -3.7266863   -0.0939113   -0.2602906 
C    -3.0794405    0.5678065   -1.3331508 
C    -2.2877072   -0.1410146   -2.2646028 
H    -3.1559556    1.6591907   -1.4138921 
Pd   -1.3628189   -0.2096267   -0.1526399 
P     0.8039795    0.3655410   -0.8292378 
P    -0.8009088   -1.0987588    2.0023255 
H    -3.9187861   -1.1674738   -0.3928729 
H    -2.4028144   -1.2355290   -2.2734377 
C    -6.4144614    1.8775132    2.4658993 
C    -5.4090629    2.6165508    1.8193799 
C    -4.5269279    1.9866142    0.9372427 
C    -4.6286336    0.5991796    0.6741727 
C    -5.6551770   -0.1268106    1.3221528 
C    -6.5355513    0.5037092    2.2100709 
H    -7.1015515    2.3723018    3.1597889 
H    -5.3094280    3.6899615    2.0117208 
H    -3.7300248    2.5749590    0.4680312 
H    -5.7712254   -1.1965081    1.1147410 
H    -7.3242932   -0.0785222    2.6977209 
C    -0.5895459    1.3443128   -5.9290259 
C    -0.7162092   -0.0342309   -5.6969569 
C    -1.2795583   -0.4945046   -4.5019722 
C    -1.7294575    0.4081809   -3.5091053 
C    -1.6373001    1.7947844   -3.7802097 
C    -1.0631711    2.2551202   -4.9699670 
H    -0.1429446    1.7083371   -6.8597493 
H    -0.3739461   -0.7521712   -6.4493176 
H    -1.3705730   -1.5713760   -4.3228648 
H    -2.0231418    2.5243028   -3.0613161 
H    -0.9937792    3.3318818   -5.1557686 
Fe    3.8483005   -0.6677550    0.9898334 
C     2.1021526    0.2830411    0.4429264 
C     1.9851400   -0.3626355    1.7444751 
C     2.9945975    0.2169764    2.5985820 
C     3.7473491    1.1748107    1.8476106 
C     3.2233269    1.2024532    0.5183269 
C     5.1508032   -1.9270745    1.9223595 
C     4.2404746   -2.6791565    1.1063110 
C     4.3872570   -2.2284338   -0.2448182 
C     5.3815876   -1.1932112   -0.2702973 
C     5.8549384   -1.0083594    1.0711847 
C     1.0598331   -1.5019936    2.1377392 
H     3.1970075   -0.0530609    3.6348621 
H     4.6002024    1.7479268    2.2155278 
H     3.5891117    1.8252147   -0.2979747 
H     5.2756119   -2.0209226    3.0029388 
H     3.5626773   -3.4638983    1.4479501 
H     3.8419007   -2.6128933   -1.1057739 
H     5.7230838   -0.6465628   -1.1510008 
H     6.6052762   -0.2841017    1.3932400 
H     1.1510954   -2.2722470    1.3490483 
C     1.5322813   -2.1089884    3.4755379 
H     2.5862681   -2.4145410    3.3680862 
H     1.4844592   -1.3750288    4.2937242 
H     0.9528770   -2.9872279    3.7769455 
C    -1.6572554   -2.8338884    1.9684417 
C    -1.2640014   -0.0764138    3.5556795 
C    -1.4469336   -3.3713920    0.5312685 
H    -1.9222871   -4.3655515    0.4412672 
H    -1.9016824   -2.7020967   -0.2223966 
H    -0.3776214   -3.4870493    0.2800347 
C    -2.5766019    0.6682157    3.2509338 
H    -2.8394901    1.3081071    4.1129281 
H    -2.4619594    1.3166646    2.3681074 
H    -3.4250514   -0.0069432    3.0649083 
C    -1.1344377   -3.9004344    2.9537611 
H    -1.7944363   -4.7843530    2.8771587 
H    -0.1167334   -4.2379295    2.7005252 
H    -1.1548314   -3.5659150    4.0023577 
C    -3.1658160   -2.6318025    2.2189585 
H    -3.7041139   -3.5586449    1.9485589 
H    -3.3849864   -2.4180481    3.2771587 
H    -3.5715264   -1.8105074    1.6136221 
C    -1.4236249   -0.9077465    4.8460105 
H    -1.6375736   -0.2149540    5.6808233 
H    -2.2687396   -1.6116133    4.7834069 
H    -0.5168941   -1.4725568    5.1090889 
C    -0.1564303    0.9865032    3.7453499 
H     0.0673746    1.5207916    2.8067983 
H    -0.5080187    1.7303032    4.4834003 
H     0.7821727    0.5580448    4.1259826 
H    -0.4432422    2.1583182   -1.6880842 
C     0.9633675    4.4411937   -2.2144762 
C     1.4853096    3.0047184   -2.0081450 
C     0.5080049    2.2024038   -1.1256453 
C     0.2127084    2.9130098    0.2148593 
C    -0.2897413    4.3483818   -0.0169263 
C     0.6945597    5.1534202   -0.8797869 
H     0.0248212    4.4001808   -2.8021060 
H     1.6890396    5.0113242   -2.8217388 
H     2.4851805    3.0475749   -1.5397951 
H     1.5981934    2.5137372   -2.9897478 
H    -0.5431280    2.3314972    0.7773280 
H     1.1294722    2.9330874    0.8337023 
H    -1.2752338    4.3092967   -0.5242137 
H    -0.4545003    4.8463373    0.9554793 
H     1.6484156    5.2720908   -0.3288909 
H     0.3054102    6.1712536   -1.0603019 
H     0.8007995    0.0602813   -3.1912753 
C     1.6763263   -2.5909636   -3.6757411 
C     1.1987413   -1.9095202   -2.3803347 
C     1.4444696   -0.3832535   -2.4095298 
C     2.9172781   -0.0553154   -2.7303299 
C     3.3583558   -0.7314921   -4.0422386 
C     3.1388591   -2.2517656   -4.0058906 
H     1.0360255   -2.2512191   -4.5115963 
H     1.5383601   -3.6843561   -3.5939624 
H     1.7300613   -2.3382894   -1.5076563 
H     0.1236538   -2.1072609   -2.2146159 
H     3.0659282    1.0332358   -2.8082744 
H     3.5415123   -0.3970772   -1.8891519 
H     2.7802176   -0.2987881   -4.8825867 
H     4.4210837   -0.4991202   -4.2366592 
H     3.8078508   -2.7023569   -3.2470324 
H     3.4228284   -2.7034947   -4.9729824 
