132
Energy =
C     1.4797722   -1.2569649   -2.9535316 
C     2.0515658    0.0080062   -2.6467766 
C     2.9576571    0.1453585   -1.5673647 
H     1.7219634    0.9080078   -3.1804536 
Pd    0.8985017   -0.5206869   -0.8590095 
P     0.5739707    0.7703251    1.0599913 
P    -1.0069443   -1.8564366   -0.3061310 
H     2.0530738   -2.1435794   -2.6486926 
H     3.4615997   -0.7763915   -1.2374048 
C    -1.3946227   -2.0082296   -6.0762813 
C    -1.0525436   -0.6857962   -5.7480567 
C    -0.1154089   -0.4248059   -4.7433935 
C     0.5113063   -1.4816841   -4.0408873 
C     0.1827162   -2.8061285   -4.4104263 
C    -0.7651510   -3.0688221   -5.4064188 
H    -2.1336003   -2.2090887   -6.8585643 
H    -1.5247289    0.1487519   -6.2769214 
H     0.1144615    0.6154929   -4.4927489 
H     0.6854154   -3.6385554   -3.9078523 
H    -1.0045377   -4.1048653   -5.6687349 
C     5.1095543    3.7322504   -0.5927594 
C     5.7119314    2.4741932   -0.4517144 
C     4.9852790    1.3126620   -0.7392444 
C     3.6529690    1.3890826   -1.2060259 
C     3.0595467    2.6645558   -1.3449649 
C     3.7799128    3.8213739   -1.0391332 
H     5.6620364    4.6410564   -0.3352267 
H     6.7469651    2.3964980   -0.1042705 
H     5.4603522    0.3309510   -0.6278758 
H     2.0139408    2.7430873   -1.6625767 
H     3.2993925    4.8005935   -1.1297113 
Fe    1.7990892   -1.8309094    2.8400322 
C     0.4639200   -0.3250504    2.4958871 
C    -0.1896643   -1.6245612    2.4980864 
C     0.0565253   -2.2064443    3.7967993 
C     0.8525142   -1.3050127    4.5726420 
C     1.1116065   -0.1464994    3.7765103 
C     2.6813103   -2.7516199    1.2338662 
C     3.5153731   -1.6861287    1.7045479 
C     3.8374354   -1.9423412    3.0768601 
C     3.2037268   -3.1726741    3.4562821 
C     2.4874050   -3.6743385    2.3162199 
C    -1.0509857    1.6055541    0.9176397 
C    -2.0221121    1.5223605    1.9290158 
C    -3.2620292    2.1759996    1.7994687 
C    -3.4845461    2.9591221    0.6426902 
C    -2.5018793    3.1027471   -0.3669756 
C    -1.3032068    2.3880744   -0.2277898 
C     1.6949971    2.1244216    1.5895867 
C     2.9956134    1.8110582    2.0280679 
C     3.8952882    2.8069893    2.4322620 
C     3.4757296    4.1545712    2.3500148 
C     2.1825036    4.5039151    1.9016824 
C     1.3007319    3.4760257    1.5328432 
C    -1.1723079   -2.2705718    1.5406182 
H    -0.2932587   -3.1903173    4.1178979 
H     1.2278550   -1.4848677    5.5816255 
H     1.6995017    0.7228400    4.0715686 
H     2.2667901   -2.8332411    0.2296128 
H     3.8462027   -0.8328036    1.1121829 
H     4.4410806   -1.3045325    3.7253739 
H     3.2392134   -3.6342871    4.4448096 
H     1.8913935   -4.5887454    2.2882537 
H    -1.8124662    0.9487746    2.8387631 
H    -0.5435227    2.4591572   -1.0160829 
H     3.3067510    0.7663277    2.0723314 
H     0.2967549    3.7467451    1.1938047 
H    -0.9262924   -3.3475325    1.5601015 
H    -1.2645403   -3.3511311   -2.1594890 
H    -2.6744405   -0.1322122   -0.1740657 
C    -5.0220707   -0.7890975   -1.4848418 
C    -3.8905067   -1.7245459   -1.0172753 
C    -2.5555744   -0.9537335   -0.9061569 
C    -2.2238619   -0.3333384   -2.2823277 
C    -3.3552512    0.5652139   -2.8039603 
C    -4.7014730   -0.1695254   -2.8525013 
H    -5.1594905    0.0142018   -0.7346318 
H    -5.9706435   -1.3542344   -1.5246468 
H    -3.7795869   -2.5341841   -1.7622977 
H    -4.1733877   -2.1934430   -0.0631055 
H    -1.2828254    0.2437460   -2.2135937 
H    -2.0399698   -1.1471889   -3.0081817 
H    -3.4448578    1.4376482   -2.1327821 
H    -3.0819074    0.9510643   -3.8027370 
H    -4.6582981   -0.9719181   -3.6148800 
H    -5.5065970    0.5205852   -3.1645796 
C    -2.1160340   -5.8728743   -1.3194097 
C    -2.1317467   -4.5368579   -0.5510150 
C    -1.0501504   -3.5697958   -1.0946147 
C     0.3310925   -4.2548629   -1.0060598 
C     0.3595444   -5.6098272   -1.7374612 
C    -0.7422006   -6.5522542   -1.2316424 
H    -2.3709017   -5.6841621   -2.3808958 
H    -2.9040244   -6.5345003   -0.9172661 
H    -1.9296749   -4.7480499    0.5171341 
H    -3.1348329   -4.0917940   -0.6023733 
H     1.1080821   -3.5859574   -1.4133443 
H     0.5799853   -4.4197410    0.0603702 
H     0.2165790   -5.4404639   -2.8222459 
H     1.3562983   -6.0711239   -1.6179117 
H    -0.5373995   -6.8246723   -0.1771958 
H    -0.7364726   -7.4941992   -1.8082350 
C    -2.6106731   -2.1158617    2.0913215 
H    -2.9855008   -1.0869225    1.9684250 
H    -3.3056684   -2.8083319    1.5924193 
H    -2.6150581   -2.3497433    3.1692662 
C    -4.3140151    2.0789955    2.8791848 
H    -3.8539029    1.8876742    3.8623607 
H    -4.9030913    3.0089971    2.9320715 
H    -5.0184502    1.2494482    2.6778333 
C    -2.7469952    4.0357712   -1.5291147 
H    -3.6966226    3.8114927   -2.0440004 
H    -2.8224590    5.0785990   -1.1727858 
H    -1.9299668    3.9738247   -2.2659120 
O    -4.6482279    3.6846689    0.5150559 
C    -5.7782685    2.9776228   -0.0125905 
H    -6.6052160    3.7017119   -0.0545142 
H    -5.5702123    2.5961063   -1.0306966 
H    -6.0670980    2.1290663    0.6357251 
C     5.2847314    2.4566506    2.9068401 
H     6.0078022    3.2250031    2.5881463 
H     5.3286987    2.3972326    4.0108677 
H     5.6019528    1.4798042    2.5069220 
C     1.7929426    5.9588339    1.7893729 
H     2.5650024    6.5230523    1.2378834 
H     0.8261364    6.0726853    1.2731835 
H     1.7036108    6.4328860    2.7837978 
O     4.3725020    5.1661611    2.6185976 
C     4.4913549    5.5641934    3.9918544 
H     5.2144270    6.3931425    4.0121157 
H     3.5207114    5.9116947    4.3933426 
H     4.8653049    4.7363543    4.6233088 
