122
Energy =
C    -0.6415151   -2.7561245    1.9818936 
C    -0.0325351   -1.9366923    2.9699392 
C    -0.6810604   -0.8079086    3.5219965 
H     1.0149721   -2.1252320    3.2328526 
Pd   -0.3912558   -0.6269225    1.2306596 
P     0.1025603    1.6910954    1.2436701 
P    -0.2354700   -0.9966709   -1.0745410 
H    -1.7410711   -2.7726890    1.9418795 
H    -1.7768456   -0.7663118    3.4320152 
C     1.2400301   -6.2583692    0.3268109 
C     2.0361746   -5.2158038    0.8295376 
C     1.4383468   -4.0731383    1.3708020 
C     0.0287928   -3.9358220    1.4050203 
C    -0.7558493   -4.9921350    0.8927851 
C    -0.1569348   -6.1439592    0.3679934 
H     1.7074610   -7.1478997   -0.1057537 
H     3.1270101   -5.2878154    0.7919535 
H     2.0801427   -3.2819527    1.7736388 
H    -1.8473921   -4.9147988    0.9145556 
H    -0.7898980   -6.9477330   -0.0210344 
C     0.9053765    1.6772414    6.6522553 
C    -0.4270417    1.8139498    6.2364417 
C    -0.9264557    1.0047365    5.2102146 
C    -0.1030627    0.0525208    4.5658384 
C     1.2410511   -0.0675337    4.9934525 
C     1.7341960    0.7295796    6.0287625 
H     1.2968907    2.3020472    7.4616340 
H    -1.0840641    2.5435003    6.7208197 
H    -1.9738609    1.1009940    4.9106520 
H     1.9120851   -0.7869847    4.5160322 
H     2.7748757    0.6165793    6.3474194 
Fe   -3.4456929    2.3741758   -2.3734806 
C    -2.2364641    0.9695028   -1.5304905 
C    -1.7679403    2.3009094   -1.1975758 
C    -2.8546247    2.9913661   -0.5448734 
H    -2.8159880    4.0187676   -0.1811633 
C    -3.9639284    2.0921307   -0.4327572 
H    -4.9372739    2.3287729    0.0002922 
C    -3.5869521    0.8483278   -1.0354985 
H    -4.2248149   -0.0317047   -1.1491904 
C    -4.1251522    1.8202956   -4.2270909 
H    -4.1212232    0.8148492   -4.6523281 
C    -3.0858931    2.8026460   -4.3517484 
H    -2.1514743    2.6801214   -4.9016833 
C    -3.5016980    3.9810375   -3.6434490 
H    -2.9327737    4.9066170   -3.5376493 
C    -4.7984161    3.7277089   -3.0863017 
H    -5.3779729    4.4183259   -2.4709445 
C    -5.1830582    2.3926459   -3.4454935 
H    -6.1080806    1.8914852   -3.1542321 
C    -0.3787142    2.8135749   -1.3360246 
C     0.5810664    2.5950256   -0.3054429 
C     1.8816149    3.1209593   -0.4473599 
H     2.6233548    2.9610622    0.3397380 
C     2.2406575    3.8565803   -1.5843866 
H     3.2569513    4.2491274   -1.6764708 
C     1.3009403    4.0754054   -2.5986988 
H     1.5753070    4.6432276   -3.4929362 
C     0.0061049    3.5569766   -2.4676124 
H    -0.7433510    3.7268895   -3.2441754 
C     1.5274565   -0.6201604   -1.4785692 
C     2.0234463    0.3291819   -2.3917263 
H     1.3563313    0.9681421   -2.9679208 
C     3.4076427    0.4722173   -2.5677577 
C     4.3191624   -0.2953666   -1.8261264 
H     5.3964097   -0.1759786   -1.9688406 
C     3.8254405   -1.2195142   -0.8996965 
C     2.4446006   -1.3804772   -0.7287187 
H     2.0782904   -2.1169767   -0.0059831 
C    -0.4302386   -2.7297940   -1.7054311 
C     0.6212563   -3.5089499   -2.2155820 
H     1.6458738   -3.1325986   -2.2390937 
C     0.3742860   -4.8023102   -2.6983660 
C    -0.9213697   -5.3302953   -2.7099261 
H    -1.1081129   -6.3368837   -3.0927711 
C    -1.9691292   -4.5637007   -2.1816380 
C    -1.7249133   -3.2872945   -1.6623645 
H    -2.5594783   -2.7343611   -1.2179620 
C    -1.4917401   -0.1428751   -2.2189494 
H    -2.2198778   -0.9656107   -2.3133066 
C    -0.9687627    0.1449108   -3.6386183 
H    -1.8285064    0.2003223   -4.3228264 
H    -0.4447078    1.1103141   -3.6901630 
H    -0.2972078   -0.6549987   -3.9954528 
C     1.5313745   -5.6292500   -3.2207570 
F     1.3332650   -6.9485409   -2.9906857 
F     1.6976163   -5.4696013   -4.5526471 
F     2.6950578   -5.2768790   -2.6216185 
C    -3.3481870   -5.1711917   -2.0541449 
F    -3.4446824   -5.9026093   -0.9077383 
F    -4.3118477   -4.2213893   -1.9976037 
F    -3.6318511   -5.9982644   -3.0788477 
C     3.9624771    1.4500794   -3.5843995 
F     4.6787139    2.4325072   -2.9814574 
F     4.7968363    0.8254529   -4.4440881 
F     2.9871629    2.0412218   -4.3121709 
C     4.7494000   -2.0793549   -0.0679641 
F     4.4195451   -1.9935985    1.2584750 
F     4.6418180   -3.3868485   -0.4039425 
F     6.0389464   -1.7199992   -0.1882579 
C     4.0421085    2.0362338    3.7078992 
C     3.8631407    1.0154151    2.7614268 
C     2.6552298    0.9195770    2.0593489 
C     1.6160570    1.8488364    2.2857520 
C     1.7925136    2.8522848    3.2563183 
C     3.0026891    2.9429739    3.9594206 
H     4.9849801    2.1151332    4.2589165 
H     4.6576018    0.2878288    2.5687010 
H     2.5213448    0.1216963    1.3222953 
H     0.9857928    3.5538698    3.4831708 
H     3.1258744    3.7238441    4.7167559 
C    -3.1137490    4.5063268    3.0676606 
C    -1.9265588    5.0471073    2.5465251 
C    -0.9506267    4.2040149    1.9989729 
C    -1.1513107    2.8069113    1.9853697 
C    -2.3509845    2.2749029    2.4892204 
C    -3.3279464    3.1207462    3.0317004 
H    -3.8770742    5.1684107    3.4894450 
H    -1.7645606    6.1299388    2.5581497 
H    -0.0423886    4.6329540    1.5617960 
H    -2.5314490    1.1974951    2.4207079 
H    -4.2626444    2.6982651    3.4149171 
