134
Energy =
C    -2.2463130    0.4242697   -2.5100220 
C    -1.4676298   -0.6860852   -2.9289395 
C    -1.6055291   -1.9574873   -2.3200973 
H    -0.6620967   -0.5299982   -3.6563427 
Pd   -0.9533728   -0.3633053   -0.8016659 
P     0.4076474   -1.8514366    0.3725451 
P    -1.0864353    1.5886952    0.5161777 
H    -3.2015413    0.2079056   -2.0106815 
H    -2.5378302   -2.1454721   -1.7673606 
C    -2.0684333    4.3776004   -4.2009199 
C    -0.9930205    3.4936640   -4.3919552 
C    -1.0345987    2.2069458   -3.8494237 
C    -2.1509233    1.7715835   -3.0973119 
C    -3.2295452    2.6675394   -2.9248897 
C    -3.1890768    3.9560607   -3.4711205 
H    -2.0334169    5.3859607   -4.6260183 
H    -0.1156747    3.8131719   -4.9639877 
H    -0.1826549    1.5360977   -4.0035588 
H    -4.1078427    2.3420893   -2.3578479 
H    -4.0388555    4.6316059   -3.3279261 
C     0.4496616   -5.5652481   -3.4444301 
C    -0.5560342   -5.5875832   -2.4673098 
C    -1.2123626   -4.4045326   -2.1098449 
C    -0.8695550   -3.1706785   -2.7106110 
C     0.1513273   -3.1648198   -3.6899951 
C     0.7977990   -4.3485579   -4.0543847 
H     0.9607373   -6.4899064   -3.7318357 
H    -0.8380246   -6.5301530   -1.9868431 
H    -2.0017028   -4.4314622   -1.3524902 
H     0.4448629   -2.2298401   -4.1755505 
H     1.5833193   -4.3219797   -4.8161211 
Fe    3.6224424    0.8830522    2.6080888 
C     2.0960401    0.0488956    1.5552850 
C     1.7006101    1.3584966    2.0529895 
C     2.6530196    2.3203441    1.5526089 
H     2.6203772    3.3916417    1.7530653 
C     3.5985347    1.6363891    0.7232160 
H     4.4486454    2.0922971    0.2122357 
C     3.2689400    0.2409204    0.7317634 
H     3.8302242   -0.5538268    0.2387943 
C     3.7646682    0.3827545    4.5952273 
H     2.9494750    0.1639663    5.2874038 
C     4.3510482    1.6725672    4.3549485 
H     4.0572277    2.6148987    4.8215087 
C     5.4010565    1.5076293    3.3912158 
H     6.0290585    2.3024332    2.9844285 
C     5.4623825    0.1182227    3.0337185 
H     6.1426243   -0.3265311    2.3048559 
C     4.4483892   -0.5761954    3.7753211 
H     4.2299649   -1.6447381    3.7201551 
C     0.5115246    1.6941376    2.8842252 
C    -0.8068809    1.7107177    2.3471100 
C    -1.9009652    1.9475918    3.2056309 
H    -2.9171457    1.9550068    2.8027223 
C    -1.7086378    2.2073576    4.5689752 
H    -2.5747987    2.3848647    5.2146281 
C    -0.4089197    2.2699564    5.0849734 
H    -0.2408584    2.5049503    6.1411184 
C     0.6809396    2.0147421    4.2441548 
H     1.6999568    2.0383634    4.6343384 
C    -0.4929107   -3.3049098    1.0347358 
C     0.1461937   -4.4260793    1.6025899 
H     1.2389941   -4.4750990    1.6551049 
C    -0.6043991   -5.4884975    2.1366951 
C    -2.0107566   -5.3970388    2.1130382 
H    -2.6027832   -6.2203161    2.5315904 
C    -2.6769994   -4.2742232    1.5902631 
C    -1.8980246   -3.2311995    1.0570527 
H    -2.3904471   -2.3392899    0.6496220 
C     1.6815937   -2.3876899   -0.8446296 
C     2.1586241   -1.3788680   -1.7036042 
H     1.7311833   -0.3709517   -1.6358035 
C     3.1804000   -1.6367429   -2.6357886 
C     3.7032307   -2.9386394   -2.7033399 
H     4.4932103   -3.1590473   -3.4317883 
C     3.2206510   -3.9774264   -1.8816283 
C     2.2074245   -3.6880220   -0.9511002 
H     1.8063005   -4.5005997   -0.3408204 
C     1.4649761   -1.2887928    1.8494937 
H     2.2791104   -2.0360126    1.8749706 
C     0.6671880   -1.3684279    3.1626786 
H     1.2454322   -0.8750920    3.9604223 
H    -0.3084863   -0.8619240    3.0910907 
H     0.4873298   -2.4163333    3.4475681 
C     3.6786272   -0.5276913   -3.5363327 
C     3.7777915   -5.3774602   -2.0079659 
C     0.0747846   -6.7022911    2.7319680 
C    -4.1881763   -4.1997096    1.5757186 
C    -5.5517258    2.8120291    0.1919414 
C    -4.5847606    3.8221428    0.0586188 
C    -3.2214204    3.4690371    0.1485346 
C    -2.8418395    2.1384537    0.3737491 
C    -3.8348557    1.1426434    0.5031585 
C    -5.1984652    1.4635710    0.4158362 
H    -6.6131361    3.0766816    0.1117092 
H    -2.4605988    4.2423384    0.0093939 
H    -3.5357205    0.0997339    0.6738670 
C     1.6758016    4.9377570   -1.0679958 
C     1.6616277    3.6893869   -1.7126718 
C     0.7916989    2.6990328   -1.2221563 
C    -0.0282468    2.9467476   -0.1125796 
C     0.0246746    4.1972685    0.5364785 
C     0.8687448    5.2124890    0.0563348 
H     2.3461321    5.7216097   -1.4421156 
H     0.7642789    1.7092310   -1.6912443 
H    -0.5749491    4.3738923    1.4366709 
H     1.1725233   -6.6039471    2.7126232 
H    -0.2378782   -6.8570115    3.7800779 
H    -0.1957395   -7.6172544    2.1743169 
H    -4.5393999   -3.1645686    1.4256444 
H    -4.6029369   -4.8165053    0.7562857 
H    -4.6192468   -4.5778437    2.5182487 
H     2.8610845   -0.1327784   -4.1679561 
H     4.0638726    0.3200626   -2.9412047 
H     4.4848937   -0.8737848   -4.2027384 
H     3.1603205   -6.1074100   -1.4595957 
H     3.8234416   -5.6922519   -3.0651542 
H     4.8069675   -5.4309787   -1.6069499 
C    -4.9804282    5.2629896   -0.1755756 
H    -4.9513800    5.8341399    0.7713720 
H    -4.2858444    5.7570344   -0.8765610 
H    -6.0023678    5.3430324   -0.5811134 
C    -6.2644571    0.3986436    0.5511093 
H    -6.9005808    0.3562523   -0.3512794 
H    -5.8212555   -0.5996198    0.7051444 
H    -6.9301451    0.6116169    1.4068609 
C     2.5865890    3.3947615   -2.8718618 
H     3.5506872    2.9934274   -2.5058166 
H     2.1542613    2.6399025   -3.5500869 
H     2.8068547    4.3026696   -3.4577047 
C     0.9121310    6.5706020    0.7216404 
H     0.4083292    6.5569686    1.7020977 
H     1.9517424    6.9109081    0.8707064 
H     0.4088312    7.3297230    0.0941960 
