110
Energy =
C    -3.4116172    0.5687316   -0.5795654 
C    -2.8558159    1.7542138   -0.0609618 
C    -1.7278401    2.3795914   -0.6745402 
H    -3.2491683    2.1799916    0.8711028 
Pd   -1.1568451    0.3505558    0.1167099 
P     1.1438157    0.7152088   -0.2199885 
P    -0.9989747   -1.8536600    1.0130515 
H    -3.0978581    0.2781616   -1.5939058 
H    -1.6029289    2.2260861   -1.7561856 
C    -7.0535947   -1.3591120    0.6359539 
C    -6.4259354   -1.7015115   -0.5715774 
C    -5.2403321   -1.0618344   -0.9488647 
C    -4.6515481   -0.0719084   -0.1254019 
C    -5.3104911    0.2784662    1.0775912 
C    -6.4951500   -0.3613279    1.4528829 
H    -7.9808545   -1.8581703    0.9349388 
H    -6.8644394   -2.4646370   -1.2224644 
H    -4.7596245   -1.3235855   -1.8981585 
H    -4.8974510    1.0567283    1.7265696 
H    -6.9906145   -0.0789540    2.3874104 
C    -0.3534987    6.1769719    0.8018987 
C    -0.5169256    5.9658351   -0.5749926 
C    -0.9195790    4.7112026   -1.0511971 
C    -1.1955310    3.6556757   -0.1540375 
C    -1.0170861    3.8792335    1.2308844 
C    -0.5950187    5.1254315    1.7025590 
H    -0.0162028    7.1479549    1.1768168 
H    -0.3249917    6.7796042   -1.2821007 
H    -1.0467054    4.5503712   -2.1278865 
H    -1.1824740    3.0545575    1.9346028 
H    -0.4324591    5.2797013    2.7734320 
Fe    3.3042435   -2.1258863   -0.4136782 
C     2.3122120   -0.5323308    0.4147533 
C     1.9664158   -1.7394684    1.1452609 
C     3.2071279   -2.3133678    1.6093853 
C     4.2922036   -1.4604993    1.2291163 
C     3.7515237   -0.3691137    0.4785405 
C     2.9774473   -2.3628914   -2.4371331 
C     4.3207085   -1.9370066   -2.1779686 
C     4.9407774   -2.9159521   -1.3305274 
C     3.9780838   -3.9462272   -1.0626059 
C     2.7710311   -3.6081536   -1.7545871 
C     1.8505344    2.2575550    0.4893246 
C     2.2103158    2.2767157    1.8541597 
C     2.6806685    3.4515121    2.4463786 
C     2.8010067    4.6212308    1.6778060 
C     2.4685676    4.6064381    0.3164508 
C     1.9860889    3.4328673   -0.2744349 
C     1.5095251    0.8476535   -2.0257333 
C     2.8016460    1.1843605   -2.4797673 
C     3.0886510    1.2104660   -3.8485867 
C     2.0861900    0.8994783   -4.7814402 
C     0.7923244    0.5785354   -4.3433086 
C     0.5084985    0.5614739   -2.9724958 
C     0.6714962   -2.0265718    1.8935709 
H     3.2882335   -3.2317718    2.1953385 
H     5.3504146   -1.6353597    1.4309660 
H     4.3258452    0.4511722    0.0462467 
H     2.2498103   -1.8309583   -3.0520953 
H     4.7878571   -1.0249171   -2.5507700 
H     5.9579178   -2.8708691   -0.9373520 
H     4.1374794   -4.8277785   -0.4392576 
H     1.8651108   -4.2101988   -1.7718480 
H     2.1378960    1.3655425    2.4546771 
H     1.7152907    3.4418082   -1.3331453 
H     3.5905116    1.4338127   -1.7654034 
H    -0.4994771    0.3079569   -2.6298819 
H     0.7173740   -3.0667368    2.2581745 
C     0.7383809   -1.0668647    3.1167989 
H     1.7682818   -1.0574943    3.5100250 
H     0.4767736   -0.0370284    2.8150962 
H     0.0708494   -1.3673781    3.9357814 
C     3.2170872    5.9125807    2.3445008 
F     4.1417780    5.7053877    3.3082116 
F     3.7236923    6.8004902    1.4614714 
F     2.1486794    6.5111828    2.9441890 
H     2.9612067    3.4624834    3.5036913 
H     2.5724437    5.5165550   -0.2791937 
H     4.0934224    1.4650077   -4.1975053 
H     0.0132430    0.3375572   -5.0726017 
C     2.3768117    0.9542446   -6.2674585 
F     1.7465085   -0.0469027   -6.9251130 
F     1.9451657    2.1207453   -6.8028757 
F     3.6996297    0.8526780   -6.5233615 
C    -0.9767569   -3.2016976   -0.3541451 
C    -2.2613584   -2.2610320    2.4315632 
C    -2.3820901   -3.6310974   -0.8254562 
H    -2.2703816   -4.1407438   -1.8000174 
H    -2.8657417   -4.3399527   -0.1396356 
H    -3.0522453   -2.7687220   -0.9731395 
C    -2.5554270   -0.9242163    3.1579946 
H    -1.6702562   -0.4554284    3.6087218 
H    -3.0052809   -0.2006478    2.4580466 
H    -3.2856971   -1.1124740    3.9661704 
C    -0.3081688   -2.5013683   -1.5552544 
H    -0.1484235   -3.2311380   -2.3698975 
H    -0.9684197   -1.7072715   -1.9433917 
H     0.6649712   -2.0585755   -1.2920302 
C    -0.1748882   -4.4422303    0.0876251 
H    -0.1852399   -5.1876490   -0.7293922 
H     0.8772251   -4.1952802    0.3042253 
H    -0.6218273   -4.9237248    0.9740753 
C    -3.6105053   -2.7649738    1.8709648 
H    -4.3644575   -2.6798355    2.6736030 
H    -3.9701437   -2.1704091    1.0214609 
H    -3.5665589   -3.8227405    1.5757267 
C    -1.7454405   -3.3393903    3.4108909 
H    -0.8524515   -3.0395502    3.9793820 
H    -2.5430275   -3.5485549    4.1472661 
H    -1.5251744   -4.2866340    2.8902818 
