124
Energy =
C     2.1617797    1.4455413    2.1045874 
C     1.9086753    0.2649863    2.8488425 
C     2.3612652   -1.0035596    2.4132814 
H     1.2554330    0.3218198    3.7279774 
Pd    0.9351344   -0.0178018    0.8780529 
P    -0.0298761   -1.8886166   -0.1397707 
P     0.0319043    1.6172271   -0.5574794 
H     3.0316345    1.4288012    1.4297745 
H     3.2080716   -1.0161400    1.7113556 
C     0.8606986    5.4152600    3.1708297 
C     1.9103639    5.2240788    2.2602916 
C     2.3387729    3.9284089    1.9451158 
C     1.7132482    2.7916682    2.5095065 
C     0.6679616    3.0036686    3.4395730 
C     0.2543026    4.2980947    3.7701693 
H     0.5260409    6.4261177    3.4243856 
H     2.4074397    6.0860864    1.8033394 
H     3.1801767    3.7917617    1.2565029 
H     0.1573725    2.1497932    3.8963048 
H    -0.5525603    4.4390512    4.4967267 
C     1.9109814   -4.6604830    4.6487017 
C     2.8895432   -4.5446194    3.6499460 
C     3.0207949   -3.3517427    2.9288213 
C     2.1710050   -2.2489067    3.1787360 
C     1.1901723   -2.3830580    4.1905535 
C     1.0678098   -3.5702944    4.9196518 
H     1.8096953   -5.5900667    5.2177186 
H     3.5613928   -5.3830227    3.4389607 
H     3.8037043   -3.2628467    2.1683502 
H     0.5052370   -1.5553045    4.4026968 
H     0.3053057   -3.6496790    5.7014391 
Fe   -2.6818530    0.8567941   -2.9725750 
C    -0.8443322    0.9836385   -2.0297035 
C    -1.2663431   -0.3971328   -2.2379420 
C    -1.4400643   -0.5880608   -3.6572914 
C    -1.1767593    0.6514261   -4.3246153 
C    -0.8388150    1.6241873   -3.3320918 
C    -4.1927339    1.5029934   -4.1772899 
C    -4.4568910    0.1730940   -3.7021684 
C    -4.4997869    0.2140145   -2.2679465 
C    -4.2656626    1.5661460   -1.8609548 
C    -4.0707948    2.3659544   -3.0381253 
C    -1.5447425   -1.4360664   -1.1735751 
H    -1.7626150   -1.5074604   -4.1474076 
H    -1.2640020    0.8317495   -5.3975001 
H    -0.5953432    2.6689181   -3.5241691 
H    -4.0836610    1.7989979   -5.2222146 
H    -4.5822790   -0.7148192   -4.3249359 
H    -4.6856147   -0.6304916   -1.6018561 
H    -4.2473915    1.9253845   -0.8328904 
H    -3.8728531    3.4387926   -3.0651873 
H    -2.1838760   -0.9498924   -0.4143055 
C    -2.2903714   -2.6545222   -1.7454867 
H    -3.1452049   -2.3094283   -2.3508413 
H    -1.6429141   -3.2675112   -2.3945837 
H    -2.6825685   -3.2982248   -0.9451212 
H     2.0893159    2.6944667   -0.2587410 
C     2.7489286    4.5498678   -2.1668043 
C     1.3716407    3.9478640   -1.8214906 
C     1.5371563    2.5442773   -1.2026982 
C     2.3888036    1.6065812   -2.0868261 
C     3.7462733    2.2418063   -2.4343508 
C     3.5686610    3.6250315   -3.0791421 
H     3.3098275    4.7264729   -1.2273690 
H     2.6074517    5.5389558   -2.6379150 
H     0.7567758    3.9037698   -2.7381468 
H     0.8542074    4.6124587   -1.1096900 
H     2.5421347    0.6472839   -1.5565433 
H     1.8383632    1.3699166   -3.0166700 
H     4.3469555    2.3448367   -1.5083405 
H     4.3104298    1.5676440   -3.1036677 
H     3.0479159    3.5120026   -4.0506024 
H     4.5524282    4.0765874   -3.2985493 
H    -0.3410856    3.3713369    1.0100482 
C    -2.9101198    2.9456119    2.1147211 
C    -2.0142189    2.0174660    1.2762214 
C    -1.0523444    2.8184517    0.3672478 
C    -1.8226594    3.8188181   -0.5173057 
C    -2.7040928    4.7464519    0.3415003 
C    -3.6683663    3.9592277    1.2427164 
H    -2.2718180    3.4951528    2.8313678 
H    -3.6161306    2.3414200    2.7129740 
H    -2.6390671    1.3596018    0.6398786 
H    -1.4267024    1.3495776    1.9349745 
H    -1.1288499    4.4261458   -1.1187387 
H    -2.4356673    3.2466938   -1.2323351 
H    -2.0480773    5.3765915    0.9738192 
H    -3.2657204    5.4339810   -0.3166435 
H    -4.4110571    3.4288531    0.6151253 
H    -4.2457639    4.6513826    1.8811136 
H     0.4756741   -3.8042020   -1.5225699 
C     3.2204598   -4.3113572   -1.2659745 
C     2.3006904   -3.4197662   -0.4143295 
C     1.0828058   -2.9269385   -1.2232337 
C     1.5467200   -2.1889202   -2.4968916 
C     2.4745742   -3.0769577   -3.3464820 
C     3.6799936   -3.5825698   -2.5384943 
H     2.6752552   -5.2347181   -1.5436347 
H     4.0900395   -4.6285145   -0.6620371 
H     2.8668858   -2.5325906   -0.0708039 
H     1.9792353   -3.9593427    0.4926174 
H     0.6836160   -1.8645614   -3.0989414 
H     2.0830219   -1.2688211   -2.1991038 
H     1.8975854   -3.9437463   -3.7250646 
H     2.8113897   -2.5115795   -4.2340501 
H     4.3157572   -2.7202671   -2.2541099 
H     4.3076330   -4.2471427   -3.1583840 
H     0.1622959   -3.0090593    1.9326083 
C    -1.2766018   -5.3170579    2.1125680 
C    -0.8890364   -4.5274979    0.8469036 
C    -0.6672803   -3.0395059    1.2011560 
C    -1.9045718   -2.4243207    1.8977771 
C    -2.3204016   -3.2446433    3.1325446 
C    -2.5280663   -4.7267909    2.7819982 
H    -0.4293133   -5.2913805    2.8249412 
H    -1.4421930   -6.3768807    1.8483124 
H    -1.6892248   -4.6369700    0.0938434 
H     0.0243809   -4.9619354    0.4059802 
H    -1.6900614   -1.3758104    2.1831722 
H    -2.7561012   -2.3948099    1.1907738 
H    -1.5314983   -3.1627218    3.9017405 
H    -3.2401695   -2.8144427    3.5683890 
H    -3.3917041   -4.8254379    2.0943337 
H    -2.7833260   -5.3000306    3.6911429 
