124
Energy =
C    -0.5720030    2.3764942   -2.2922200 
C    -1.3266185    1.3852279   -2.9772511 
C    -2.5002271    0.8437199   -2.4026682 
H    -0.9359507    0.9600739   -3.9096551 
Pd   -0.6238755    0.4852740   -1.0756038 
P    -1.2099082   -1.4307983    0.1370713 
P     1.1776799    1.1123536    0.3263982 
H    -1.1279159    2.9915287   -1.5680451 
H    -2.9595808    1.4235179   -1.5884722 
C     3.0428286    4.2514284   -3.7006048 
C     2.2413031    4.8744362   -2.7326774 
C     1.0602817    4.2595362   -2.2980883 
C     0.6630692    2.9990452   -2.8041267 
C     1.4791707    2.3880177   -3.7843947 
C     2.6480554    3.0117022   -4.2322181 
H     3.9636005    4.7311073   -4.0474024 
H     2.5288642    5.8486316   -2.3238675 
H     0.4271051    4.7671934   -1.5613494 
H     1.2056376    1.4093624   -4.1923836 
H     3.2613772    2.5250015   -4.9974507 
C    -5.3259571   -1.7817800   -4.3189200 
C    -5.5664394   -1.2831452   -3.0295102 
C    -4.6273210   -0.4473758   -2.4141307 
C    -3.4212782   -0.0971269   -3.0652200 
C    -3.1919431   -0.6148230   -4.3623465 
C    -4.1351069   -1.4412479   -4.9814280 
H    -6.0626202   -2.4272405   -4.8076809 
H    -6.4952999   -1.5348180   -2.5071856 
H    -4.8327682   -0.0409718   -1.4184106 
H    -2.2766677   -0.3576205   -4.9046833 
H    -3.9415719   -1.8215100   -5.9895863 
Fe    2.7389996   -1.2374145    2.7809362 
C     1.4258492    0.0329336    1.7854378 
C     0.8734094   -1.3082422    1.9490237 
C     0.8279652   -1.5915308    3.3609900 
C     1.3714641   -0.4751124    4.0747754 
C     1.7671470    0.5091324    3.1137486 
C     4.7695893   -0.9149277    2.7902031 
C     4.3352958   -1.4865861    4.0297349 
C     3.7144000   -2.7487010    3.7432471 
C     3.7687197   -2.9594372    2.3261045 
C     4.4163463   -1.8248449    1.7355718 
C     0.3221927   -2.2241974    0.8827967 
H     0.4787238   -2.5261624    3.8047959 
H     1.5092482   -0.4082536    5.1556076 
H     2.2310016    1.4684930    3.3432839 
H     5.2844961    0.0398000    2.6758118 
H     4.4372086   -1.0318083    5.0167470 
H     3.2610442   -3.4206597    4.4745139 
H     3.3839714   -3.8338114    1.7986514 
H     4.6153419   -1.6804867    0.6728743 
H     0.2374959    3.2471592    0.0691320 
C     0.8178126    5.0657958    2.0258155 
C     1.5389559    3.7479482    1.6755318 
C     0.5589362    2.7614274    1.0077607 
C    -0.7085872    2.5321531    1.8608799 
C    -1.3960807    3.8603319    2.2207656 
C    -0.4194807    4.8288265    2.9050474 
H     0.5079408    5.5666181    1.0866906 
H     1.5274332    5.7488166    2.5258751 
H     1.9653151    3.3140858    2.5977530 
H     2.3786794    3.9647817    0.9947154 
H    -1.4083797    1.8837416    1.3017210 
H    -0.4394233    1.9892810    2.7865181 
H    -1.7878575    4.3279576    1.2953080 
H    -2.2694826    3.6617512    2.8679410 
H    -0.1022117    4.4023507    3.8773110 
H    -0.9206504    5.7872458    3.1287051 
H     2.6236491    2.3549333   -1.1092304 
C     4.4811958    0.5490210   -2.2271805 
C     3.1607098    0.2870529   -1.4833981 
C     2.8141854    1.4395127   -0.5161290 
C     3.9773051    1.6816187    0.4666009 
C     5.2967679    1.9454329   -0.2825829 
C     5.6398319    0.8032805   -1.2505427 
H     4.3540969    1.4337471   -2.8781864 
H     4.7093808   -0.3061665   -2.8890017 
H     3.2528373   -0.6452880   -0.8964935 
H     2.3322283    0.1368548   -2.2000625 
H     3.7617439    2.5226645    1.1431712 
H     4.0684767    0.7860232    1.1024624 
H     5.2060862    2.8922667   -0.8504127 
H     6.1117886    2.0919916    0.4496652 
H     5.8455188   -0.1182705   -0.6708211 
H     6.5656049    1.0352672   -1.8065360 
H    -1.5354672   -0.3026147    2.1669082 
C    -3.2793937   -1.4987875    3.8681109 
C    -2.6517123   -2.0957303    2.5942141 
C    -2.2427868   -0.9644789    1.6267595 
C    -3.4771683   -0.1181880    1.2512517 
C    -4.1355876    0.4715911    2.5122833 
C    -4.4973723   -0.6234389    3.5293355 
H    -2.5161999   -0.8912776    4.3937163 
H    -3.5691053   -2.3122386    4.5572426 
H    -3.3947761   -2.7495889    2.1007811 
H    -1.7865507   -2.7284353    2.8560222 
H    -3.1878795    0.6917721    0.5571774 
H    -4.2067999   -0.7550618    0.7146269 
H    -3.4302156    1.1879714    2.9779283 
H    -5.0336752    1.0498980    2.2298167 
H    -5.2954843   -1.2640646    3.1048668 
H    -4.9126805   -0.1702043    4.4469084 
H    -3.1181577   -2.3885137   -0.9066435 
C    -2.9724542   -5.1516601   -0.9837641 
C    -2.1206673   -4.1699004   -0.1550037 
C    -2.0822934   -2.7777680   -0.8284957 
C    -1.5275090   -2.9066795   -2.2672561 
C    -2.3856848   -3.8804714   -3.0921333 
C    -2.4601717   -5.2641952   -2.4280390 
H    -4.0223209   -4.7981486   -0.9912712 
H    -2.9744870   -6.1413655   -0.4925527 
H    -1.0887720   -4.5652741   -0.0840530 
H    -2.5110496   -4.1106617    0.8728704 
H    -1.4891403   -1.9154518   -2.7495009 
H    -0.4891990   -3.2824714   -2.2292561 
H    -3.4043986   -3.4624917   -3.1896371 
H    -1.9781022   -3.9590564   -4.1160496 
H    -1.4524507   -5.7252333   -2.4223332 
H    -3.1116651   -5.9372352   -3.0135182 
H    -0.0062343   -3.1462413    1.3929630 
C     1.3034821   -2.5967926   -0.2454380 
H     0.9864179   -3.5197881   -0.7566704 
H     1.3721314   -1.7951888   -0.9992999 
H     2.3054253   -2.7561254    0.1775955 
