110
Energy =
C    -2.1775070    0.1375470   -2.1700466 
C    -0.9529124    0.0916575   -2.9019744 
C    -0.1873616   -1.0850132   -2.9817306 
H    -0.5770703    1.0130653   -3.3632810 
Pd   -0.4425312   -0.2435754   -0.7666574 
P     1.7791102   -0.4663931    0.0592608 
P    -1.6866305    0.0554416    1.2356825 
H    -2.7373430   -0.8027481   -2.0773235 
H    -0.6781780   -2.0189430   -2.6730826 
C    -4.5647779    3.7173101   -1.9771961 
C    -3.1633339    3.8099291   -2.0221530 
C    -2.3821292    2.6518387   -2.0854803 
C    -2.9850493    1.3713051   -2.1136055 
C    -4.3962454    1.2947613   -2.0810982 
C    -5.1773771    2.4553554   -2.0105486 
H    -5.1747670    4.6243644   -1.9189559 
H    -2.6786352    4.7913727   -1.9937550 
H    -1.2900764    2.7342395   -2.0694531 
H    -4.8834282    0.3143684   -2.1198006 
H    -6.2690453    2.3745478   -1.9868486 
C     3.2783105   -1.7756988   -5.4242403 
C     2.5642093   -2.8463123   -4.8660922 
C     1.4499264   -2.5985129   -4.0571369 
C     1.0154467   -1.2756287   -3.7992828 
C     1.7371220   -0.2071170   -4.3854109 
C     2.8577953   -0.4565993   -5.1823483 
H     4.1539041   -1.9663223   -6.0529631 
H     2.8795938   -3.8766719   -5.0582641 
H     0.8982032   -3.4370024   -3.6171807 
H     1.4197681    0.8268434   -4.2224032 
H     3.4054833    0.3818816   -5.6246123 
Fe    0.8774673   -0.8274439    3.2969469 
C    -0.8069612    0.1865224    2.8276716 
C     0.2828797    1.0940049    3.1196108 
H     0.6959013    1.8369357    2.4389118 
C     0.7298378    0.8507828    4.4584777 
H     1.5545839    1.3623313    4.9576890 
C    -0.0639375   -0.2062478    5.0095070 
H     0.0502473   -0.6458997    6.0019006 
C    -1.0088794   -0.6213417    4.0165700 
C     1.9401227   -1.3110794    1.6601935 
C     1.1056038   -2.4224338    2.0571179 
H     0.3376443   -2.8812066    1.4332152 
C     1.4553845   -2.7971988    3.3940888 
H     0.9817658   -3.5842720    3.9833524 
C     2.5120829   -1.9347341    3.8354185 
H     2.9808127   -1.9461129    4.8211267 
C     2.8160811   -1.0166698    2.7766725 
H    -1.7338990   -1.4262788    4.1410087 
H     3.5614806   -0.2210220    2.8251339 
C     2.6368061    1.1960988    0.3315143 
C     4.0520613    1.0117044   -0.2748671 
C     3.9843280    0.0190892   -1.4531984 
C     3.1150175   -1.2049764   -1.0641647 
H     2.7035566    1.2991824    1.4278292 
H     4.4727503    1.9821345   -0.5946075 
H     4.7289309    0.6180719    0.5016497 
H     3.5314531    0.5091485   -2.3309907 
H     4.9932868   -0.3024544   -1.7665332 
H     2.5660492   -1.5440851   -1.9559523 
C    -2.9360106   -1.3281844    1.5720026 
C    -4.2267244   -0.7759728    0.9412675 
C    -4.3593967    0.6595194    1.4671171 
C    -3.0272372    1.4084041    1.2212766 
H    -3.0858661   -1.2458724    2.6643451 
H    -4.1630946   -0.7831123   -0.1614406 
H    -5.0977448   -1.3919628    1.2231731 
H    -5.1875058    1.2007136    0.9787884 
H    -4.5789353    0.6241532    2.5510244 
H    -3.0290964    1.7552530    0.1757787 
C    -2.7563629    2.6395255    2.1182821 
H    -2.4662298    2.2815837    3.1258159 
C    -2.5374109   -2.7950393    1.2943057 
H    -1.6260714   -2.9776978    1.8940349 
C     1.8238242    2.4197781   -0.1780585 
C     3.8807301   -2.4523878   -0.5174292 
H     3.1507627   -3.0639781    0.0473128 
H     0.7784514    2.2538296    0.1511558 
C    -1.6111542    3.4880031    1.5388833 
H    -1.2825799    4.2610853    2.2541285 
H    -0.7347463    2.8721902    1.2769929 
H    -1.9394851    3.9906397    0.6123256 
C    -4.0197866    3.5108837    2.2657963 
H    -4.3918122    3.8271042    1.2737368 
H    -4.8350312    2.9825472    2.7871753 
H    -3.7870040    4.4200016    2.8471476 
C    -2.2034874   -3.0988203   -0.1715729 
H    -3.0757630   -2.9365575   -0.8303335 
H    -1.3778655   -2.4473130   -0.5277345 
H    -1.8835736   -4.1483379   -0.2910677 
C    -3.6215970   -3.7555782    1.8233546 
H    -3.2722706   -4.8007734    1.7634739 
H    -3.8716381   -3.5410702    2.8778002 
H    -4.5507663   -3.6812771    1.2312509 
C     5.0555626   -2.1403219    0.4248272 
H     5.5007364   -3.0820191    0.7892477 
H     5.8534377   -1.5816810   -0.0962599 
H     4.7467791   -1.5609859    1.3076198 
C     4.3750351   -3.3044071   -1.7028612 
H     3.5344778   -3.6537267   -2.3250171 
H     5.0542653   -2.7241640   -2.3540818 
H     4.9284785   -4.1889959   -1.3423878 
C     1.7852317    2.5533794   -1.7065392 
H     1.1171126    3.3803220   -2.0040356 
H     2.7832879    2.7673337   -2.1277079 
H     1.4071188    1.6255962   -2.1697796 
C     2.3227803    3.7161941    0.4826841 
H     1.7084755    4.5769248    0.1659159 
H     2.2721623    3.6513672    1.5847146 
H     3.3706057    3.9320645    0.2062405 
