134
Energy =
C     2.9858135    0.7949081   -1.6489426 
C     2.0121446    0.7221772   -2.6792939 
C     0.9891220    1.6854005   -2.8370416 
H     2.0021699   -0.1674995   -3.3219533 
Pd    0.8491110    0.6320129   -0.8151213 
P    -1.4925862    0.6532063   -0.7607398 
P     1.2153326   -0.1469267    1.4229308 
H     3.2179884    1.7859673   -1.2339248 
H     1.1523108    2.6811628   -2.3978410 
C     6.2194876   -2.0387641   -1.7280737 
C     4.9026644   -2.4738621   -1.9511633 
C     3.8398494   -1.5671165   -1.8794860 
C     4.0744658   -0.2028169   -1.5966820 
C     5.4004791    0.2187138   -1.3500915 
C     6.4625997   -0.6918937   -1.4175938 
H     7.0507568   -2.7487711   -1.7834832 
H     4.7042509   -3.5281109   -2.1722523 
H     2.8117310   -1.9146095   -2.0252214 
H     5.5985095    1.2723891   -1.1231430 
H     7.4856374   -0.3470537   -1.2356766 
C    -1.7485772    1.6190655   -6.1557791 
C    -1.2721087    0.4094794   -5.6237165 
C    -0.3973838    0.4184952   -4.5326315 
C     0.0159373    1.6368233   -3.9444369 
C    -0.4834676    2.8446447   -4.4791329 
C    -1.3512348    2.8338500   -5.5789750 
H    -2.4411179    1.6137244   -7.0024142 
H    -1.5866400   -0.5428985   -6.0629957 
H    -0.0287769   -0.5283010   -4.1254448 
H    -0.1869294    3.7986446   -4.0312505 
H    -1.7296191    3.7792764   -5.9799618 
Fe   -1.0434225   -4.0863621   -1.0293653 
C    -0.9389105   -2.0470797   -1.1616498 
C    -0.4811098   -2.4960616    0.1438502 
C     0.6074223   -3.4183545   -0.0729229 
H     1.1327571   -3.9666574    0.7097557 
C     0.8423692   -3.5262339   -1.4845032 
H     1.5785769   -4.1741727   -1.9641696 
C    -0.1062225   -2.6833898   -2.1537440 
H    -0.2146813   -2.5742012   -3.2348766 
C    -2.5855537   -4.9303004   -2.0859739 
H    -3.1398231   -4.4760739   -2.9094030 
C    -2.9234285   -4.8622311   -0.6928874 
H    -3.7947634   -4.3593790   -0.2706885 
C    -1.9320010   -5.5956569    0.0416122 
H    -1.8946919   -5.7260603    1.1247785 
C    -0.9865294   -6.1233611   -0.8980234 
H    -0.0992823   -6.7104529   -0.6535188 
C    -1.3898090   -5.7124879   -2.2125300 
H    -0.8643062   -5.9348639   -3.1431816 
C    -0.9685567   -1.9909903    1.4589293 
C    -0.3075642   -0.9280032    2.1428997 
C    -0.8524720   -0.4654108    3.3601316 
H    -0.3933452    0.3716054    3.8889699 
C    -2.0051437   -1.0380304    3.9111273 
H    -2.4113298   -0.6454223    4.8477927 
C    -2.6419332   -2.0958908    3.2514777 
H    -3.5473943   -2.5450428    3.6701754 
C    -2.1212073   -2.5578124    2.0377699 
H    -2.6027029   -3.3803392    1.5049450 
C    -2.3269637    1.1035809    0.8302499 
C    -3.5253444    0.5476295    1.3094990 
H    -4.0075626   -0.2841932    0.8030467 
C    -4.1249488    1.0562073    2.4694854 
C    -3.5651322    2.1427442    3.1532114 
H    -4.0465615    2.5484795    4.0474230 
C    -2.3711316    2.6979157    2.6757084 
C    -1.7505250    2.1788320    1.5321563 
H    -0.8105396    2.6200961    1.1861015 
C    -2.3561445    1.9033480   -1.8253575 
C    -2.0793418    3.2607819   -1.5805118 
H    -1.3543067    3.5558075   -0.8164283 
C    -2.7193709    4.2638357   -2.3190644 
C    -3.6465365    3.9333733   -3.3146010 
H    -4.1393453    4.7178579   -3.8947126 
C    -3.9026459    2.5813905   -3.5783131 
C    -3.2638480    1.5708031   -2.8458380 
H    -3.4799937    0.5334901   -3.1055552 
C    -2.0124215   -1.0178205   -1.4683669 
H    -1.9015323   -0.7834823   -2.5439523 
C    -3.4557311   -1.4985935   -1.2316202 
H    -3.6790413   -2.2966204   -1.9563258 
H    -3.5660794   -1.9259281   -0.2248649 
H    -4.1975524   -0.6937251   -1.3655578 
C    -2.3072435    5.7032181   -2.1023181 
F    -3.2493743    6.5716453   -2.5160617 
F    -2.0412647    5.9535848   -0.7993868 
F    -1.1665756    5.9775089   -2.7973172 
C    -4.8888145    2.2172664   -4.6686794 
F    -4.7507391    0.9260727   -5.0587901 
F    -6.1646482    2.3827139   -4.2562236 
F    -4.7152730    2.9962146   -5.7640214 
C    -5.3759705    0.4080171    3.0258682 
F    -6.3575322    1.3120054    3.2212571 
F    -5.8521749   -0.5597833    2.2085145 
F    -5.1212728   -0.1716866    4.2293903 
C    -1.7046755    3.8080376    3.4540877 
F    -0.8659790    4.5361313    2.6767952 
F    -2.5954836    4.6463874    4.0118485 
F    -0.9527772    3.2872216    4.4687342 
H     0.5824977    1.7897728    2.6655305 
C     2.6323476    3.6645994    2.5856684 
C     2.4439679    2.3746329    1.7676157 
C     1.5825230    1.3374950    2.5307674 
C     2.1572765    1.0597323    3.9430710 
C     2.3331474    2.3690673    4.7370351 
C     3.2153856    3.3712411    3.9768549 
H     1.6532742    4.1664126    2.6981042 
H     3.2851443    4.3600223    2.0278460 
H     3.4315707    1.9359185    1.5318406 
H     1.9613916    2.6042268    0.7964171 
H     1.5138102    0.3594958    4.5016025 
H     3.1409141    0.5708975    3.8554132 
H     1.3440673    2.8220572    4.9276982 
H     2.7730347    2.1345735    5.7228633 
H     4.2368649    2.9553617    3.8681412 
H     3.3147815    4.3078786    4.5533897 
H     2.4923538   -2.0409927    0.7476041 
C     3.3856607   -3.4962520    2.9246516 
C     2.3241970   -2.3802924    2.8820114 
C     2.5668291   -1.4441068    1.6759463 
C     3.9945029   -0.8575369    1.7149973 
C     5.0358959   -1.9913430    1.7407069 
C     4.8127395   -2.9268544    2.9378929 
H     3.2626092   -4.1457883    2.0342389 
H     3.2103953   -4.1357488    3.8083978 
H     2.3677660   -1.7948139    3.8189459 
H     1.3143361   -2.8224626    2.8386806 
H     4.1676882   -0.2043662    0.8484161 
H     4.1288121   -0.2407221    2.6189339 
H     4.9641080   -2.5670658    0.7999742 
H     6.0503109   -1.5552208    1.7647205 
H     4.9726931   -2.3657190    3.8797712 
H     5.5526417   -3.7470654    2.9294985 
