106
Energy =
C    -3.2681679   -0.4047348   -1.2793712 
C    -3.3464943   -0.9313673    0.0437282 
C    -3.0139309   -0.1277698    1.1613628 
H    -3.4993838   -2.0083368    0.1867134 
Pd   -1.2730491   -0.2403174   -0.2985001 
P     0.5214334   -0.0046962    1.1843520 
P    -0.0983728    0.3420830   -2.2198349 
H    -3.4396998    0.6741735   -1.4019172 
H    -3.0270040    0.9638187    1.0138140 
C    -3.5977358   -2.6560572   -4.9339195 
C    -3.3923495   -3.3318103   -3.7192478 
C    -3.2938790   -2.6167915   -2.5219940 
C    -3.4089592   -1.2066564   -2.5090904 
C    -3.6294245   -0.5424465   -3.7368063 
C    -3.7173851   -1.2588776   -4.9366304 
H    -3.6683556   -3.2180143   -5.8708236 
H    -3.3026563   -4.4232229   -3.7083927 
H    -3.1098063   -3.1612883   -1.5892965 
H    -3.7345894    0.5476585   -3.7458792 
H    -3.8860708   -0.7228810   -5.8765240 
C    -2.8232455   -1.2827269    5.2955701 
C    -2.4579907    0.0097052    4.8893446 
C    -2.5539973    0.3743478    3.5425170 
C    -2.9919441   -0.5531246    2.5691791 
C    -3.3752635   -1.8455845    2.9952591 
C    -3.2952065   -2.2025343    4.3448255 
H    -2.7548654   -1.5693796    6.3499327 
H    -2.1013937    0.7389660    5.6243962 
H    -2.2714852    1.3847425    3.2299378 
H    -3.7464126   -2.5778066    2.2706808 
H    -3.6030910   -3.2050491    4.6587191 
Fe    3.3398278    1.2911550   -2.4180948 
C     1.4148319    1.2770536   -1.8331178 
C     2.2895373    1.0496994   -0.6871467 
C     3.1588263    2.1906158   -0.5873777 
C     2.8403317    3.1125165   -1.6362270 
C     1.7678648    2.5609193   -2.4072313 
C     3.6111554    0.6744008   -4.3390990 
C     4.5528530    1.7042285   -4.0051446 
C     5.3310547    1.2501386   -2.8878983 
C     4.8754170   -0.0634325   -2.5354487 
C     3.8097585   -0.4202468   -3.4283623 
C     2.2033346   -0.0761678    0.3069053 
H     3.9459977    2.3141585    0.1590178 
H     3.3532114    4.0543927   -1.8392288 
H     1.2937501    3.0115582   -3.2806193 
H     2.8545199    0.7241296   -5.1225299 
H     4.6404901    2.6764997   -4.4937211 
H     6.1159042    1.8139504   -2.3804076 
H     5.2692174   -0.6736760   -1.7207682 
H     3.2396111   -1.3510793   -3.4117334 
H     2.9549048    0.1004029    1.0963730 
C     2.3933364   -1.4854712   -0.2778109 
H     3.4035799   -1.5706234   -0.7064538 
H     2.2720982   -2.2597065    0.4982975 
H     1.6699298   -1.6842102   -1.0855702 
C    -1.0387506    1.5313225   -3.2124326 
C    -1.2034664    1.7709122   -4.5600425 
C    -2.0817923    2.8983386   -4.6682944 
C    -2.3912285    3.2715671   -3.3840345 
H    -0.7496805    1.1973619   -5.3664533 
H    -2.4390362    3.3706788   -5.5836895 
H    -3.0094496    4.0586427   -2.9544102 
O    -1.7680814    2.4509978   -2.4870000 
C     0.2310366   -0.9961050   -3.3793510 
C     0.0586410   -2.3568037   -3.2337802 
C     0.4747821   -2.9583134   -4.4638864 
C     0.8665964   -1.9254034   -5.2786115 
H    -0.3329798   -2.8549902   -2.3475438 
H     0.4752065   -4.0187188   -4.7152935 
H     1.2525668   -1.8740460   -6.2959770 
O     0.7281325   -0.7285538   -4.6378618 
C     0.1171227    4.1920306    3.0922168 
C     0.0766973    4.0408491    1.6932452 
C     0.2198801    2.7492892    1.1573014 
C     0.4341911    1.6362866    1.9963592 
C     0.4655790    1.8150137    3.3929104 
C     0.3002703    3.0942615    3.9551648 
H    -0.0107019    5.1925587    3.5235189 
H     0.1559633    2.6154447    0.0719515 
H     0.5815359    0.9531813    4.0563160 
C     1.0285632   -3.3610734    4.3169679 
C     1.9097054   -2.2623342    4.3682287 
C     1.7424689   -1.2289769    3.4301524 
C     0.7077524   -1.2885776    2.4729372 
C    -0.1433652   -2.4064027    2.4352234 
C     0.0055250   -3.4586360    3.3571861 
H     1.1519400   -4.1721961    5.0454424 
H     2.4298571   -0.3753872    3.4508380 
H    -0.9283424   -2.4561340    1.6718150 
C    -0.0962411    5.2318926    0.7769289 
H     0.8857541    5.6861814    0.5454657 
H    -0.5549707    4.9354827   -0.1816774 
H    -0.7207746    6.0141780    1.2400655 
C     0.2894273    3.2829686    5.4566891 
H     0.5622596    2.3533227    5.9827848 
H     0.9954399    4.0736662    5.7661023 
H    -0.7137793    3.5899080    5.8064084 
C     3.0080098   -2.2065042    5.4073294 
H     3.6031866   -1.2827737    5.3203137 
H     2.5873224   -2.2477225    6.4281774 
H     3.6938531   -3.0666780    5.3044712 
C    -0.8989768   -4.6697724    3.3147772 
H    -0.3295306   -5.5784010    3.0467080 
H    -1.3608877   -4.8535789    4.3007102 
H    -1.7077989   -4.5434817    2.5769255 
