110
Energy =
C     2.0810844    2.0960785    0.9465283 
C     2.2820785    2.5577773   -0.3942130 
C     1.4066215    3.4462154   -1.0265191 
H     3.1497818    2.1880763   -0.9536084 
Pd    0.5001863    1.1787123   -0.2970461 
P    -0.9059774    0.2412539   -2.0423760 
P    -0.2219810   -0.3164218    1.3307787 
H     1.4686599    2.7320489    1.6010614 
H     0.6261047    3.9108112   -0.4060415 
C     5.0477639   -0.2080145    3.0678202 
C     5.0372998   -0.2100664    1.6621309 
C     4.0732160    0.5229079    0.9611566 
C     3.1025762    1.2916973    1.6498965 
C     3.1406811    1.2980002    3.0635778 
C     4.0947392    0.5509778    3.7648897 
H     5.7996084   -0.7869294    3.6137436 
H     5.7796518   -0.7953083    1.1094387 
H     4.0638067    0.4763560   -0.1328541 
H     2.4161521    1.9003674    3.6197866 
H     4.0940852    0.5753439    4.8597156 
C     1.9647768    5.3732671   -4.8225587 
C     2.7807407    4.2824223   -4.4756318 
C     2.6147710    3.6406993   -3.2456454 
C     1.6175722    4.0686114   -2.3341599 
C     0.8154446    5.1793938   -2.6946706 
C     0.9866616    5.8248662   -3.9229305 
H     2.0991814    5.8742111   -5.7866215 
H     3.5547705    3.9359279   -5.1680030 
H     3.2690691    2.8005671   -2.9929721 
H     0.0495904    5.5350395   -1.9963403 
H     0.3577721    6.6832263   -4.1798560 
Fe   -3.4743895   -1.8975785    1.4614457 
C    -2.0137788   -0.5071655    1.1530443 
C    -2.6904991   -0.7942846   -0.1001552 
C    -4.0897416   -0.5189243    0.1055302 
C    -4.2758734   -0.0332094    1.4408412 
C    -3.0053088   -0.0362941    2.0997565 
C    -3.3183047   -3.9222672    1.1509846 
C    -2.7884149   -3.5714804    2.4408445 
C    -3.8290266   -2.9316825    3.1891837 
C    -5.0048251   -2.8895858    2.3660080 
C    -4.6884697   -3.4981247    1.1046294 
C    -0.0190741    0.2404536    3.0668953 
C     0.4640683   -0.6046488    4.0829108 
C     0.6791503   -0.1009621    5.3712126 
C     0.4004143    1.2444682    5.6534040 
C    -0.1417439    2.0799138    4.6619156 
C    -0.3440797    1.5789487    3.3721992 
C     0.6147368   -1.9430457    1.2247964 
C    -0.0409680   -3.0765623    0.7116850 
C     0.6611140   -4.2690255    0.5007908 
C     2.0295866   -4.3362863    0.8037506 
C     2.6862072   -3.2176300    1.3435333 
C     1.9846284   -2.0266859    1.5509963 
C    -2.0184578   -1.1851392   -1.3981569 
H    -4.8876721   -0.6669899   -0.6228406 
H    -5.2295397    0.2427709    1.8940808 
H    -2.8115353    0.2588996    3.1315544 
H    -2.7875303   -4.4435725    0.3516312 
H    -1.7711016   -3.7536402    2.7907373 
H    -3.7394161   -2.5335120    4.2013545 
H    -5.9645117   -2.4483584    2.6411271 
H    -5.3694760   -3.6122800    0.2593232 
H     0.6945478   -1.6521913    3.8696470 
H    -0.7436456    2.2344073    2.5896588 
H    -1.1108792   -3.0185776    0.5012392 
H     2.5053346   -1.1666241    1.9755758 
H    -1.2365773   -1.9314095   -1.1696649 
C    -3.0248043   -1.8364257   -2.3647003 
H    -3.4884794   -2.6943296   -1.8463609 
H    -3.8341688   -1.1460504   -2.6473606 
H    -2.5537391   -2.2028119   -3.2854363 
C     0.7891301    1.8136873    7.0001143 
F     0.0893475    2.9280705    7.3026608 
F     0.6069856    0.9194615    7.9957825 
F     2.1076829    2.1496421    6.9973132 
H     1.0769243   -0.7505305    6.1564290 
H    -0.3800334    3.1206561    4.8985483 
H     0.1467980   -5.1507262    0.1074912 
H     3.7471442   -3.2759209    1.6033293 
C     2.8147200   -5.5948493    0.5024545 
F     3.3941056   -5.5169000   -0.7223686 
F     3.8047713   -5.7914329    1.4018758 
F     2.0245165   -6.6919607    0.5043883 
C     0.3964320   -0.6332089   -3.1627257 
C    -2.0281619    1.4377224   -3.0365960 
C    -0.1510963   -1.6988623   -4.1335298 
H     0.6847543   -2.0584936   -4.7617517 
H    -0.5483963   -2.5754131   -3.5958188 
H    -0.9284967   -1.3109908   -4.8086070 
C    -2.4435257    0.9182279   -4.4288535 
H    -3.1428466    1.6468349   -4.8791993 
H    -1.5815196    0.8313414   -5.1098989 
H    -2.9580397   -0.0534688   -4.3894156 
C     1.1480112    0.4614043   -3.9479224 
H     2.0373262    0.0145309   -4.4290186 
H     0.5321995    0.9106159   -4.7435363 
H     1.4921561    1.2686011   -3.2800468 
C     1.4013639   -1.3227451   -2.2077516 
H     2.1974047   -1.8005367   -2.8079767 
H     1.8761650   -0.5976627   -1.5186843 
H     0.9322495   -2.1112395   -1.5959200 
C    -3.2803676    1.7078813   -2.1714648 
H    -3.8253077    2.5691275   -2.5993609 
H    -3.9724592    0.8540533   -2.1555146 
H    -3.0139741    1.9574853   -1.1290039 
C    -1.2839244    2.7765516   -3.1877066 
H    -1.9253040    3.4860370   -3.7419047 
H    -1.0734686    3.2113549   -2.1983019 
H    -0.3335130    2.6910324   -3.7335969 
