134
Energy =
C    -0.3621430   -0.0861899    3.3020110 
C    -0.5807966    1.2910912    3.1077110 
C    -1.7144950    1.7424068    2.3628250 
H     0.1564526    2.0203298    3.4649605 
Pd   -0.3943850    0.5668380    1.0250560 
P    -1.0515371    1.3610548   -1.0587876 
P     1.0961232   -1.1330574    0.2804639 
H    -1.2163192   -0.7463767    3.1005395 
H    -2.5777392    1.0601365    2.3304006 
C     2.6363940   -1.9061491    5.7897570 
C     1.5786496   -2.6656773    5.2691573 
C     0.6248523   -2.0602359    4.4435881 
C     0.7053443   -0.6855828    4.1126740 
C     1.7874619    0.0610572    4.6347459 
C     2.7346315   -0.5424064    5.4669008 
H     3.3877743   -2.3748503    6.4318640 
H     1.4974678   -3.7303332    5.5089354 
H    -0.2142663   -2.6529612    4.0646904 
H     1.8985846    1.1205356    4.3877115 
H     3.5629823    0.0556475    5.8605714 
C    -2.7698767    5.8872012    1.8580165 
C    -1.4185949    5.5254246    1.9938040 
C    -1.0606998    4.1839876    2.1604093 
C    -2.0459733    3.1701854    2.1885923 
C    -3.4013370    3.5514679    2.0705336 
C    -3.7605602    4.8951973    1.9060308 
H    -3.0473680    6.9377913    1.7253877 
H    -0.6399490    6.2948688    1.9662549 
H    -0.0025307    3.9183363    2.2501170 
H    -4.1788481    2.7812634    2.1153838 
H    -4.8171797    5.1688178    1.8189774 
Fe   -3.0261475   -3.4984375    0.2351815 
C    -1.3584886   -2.3737549    0.5824607 
C    -2.1670530   -1.7373249   -0.4572788 
C    -3.4826576   -1.5262990    0.1006429 
H    -4.3323089   -1.1235361   -0.4492742 
C    -3.4928726   -1.9621126    1.4655153 
H    -4.3505887   -1.9474945    2.1406349 
C    -2.1937088   -2.4911077    1.7579361 
H    -1.8886410   -2.9536366    2.6988337 
C    -2.6865816   -5.5040212    0.4768337 
H    -1.8457192   -5.9637738    0.9989649 
C    -2.7474063   -5.1816425   -0.9203671 
H    -1.9598428   -5.3666011   -1.6531823 
C    -4.0338007   -4.5999578   -1.1842849 
H    -4.3987975   -4.2427699   -2.1489247 
C    -4.7642946   -4.5616152    0.0471610 
H    -5.7676885   -4.1545615    0.1849101 
C    -3.9331428   -5.1219801    1.0739226 
H    -4.1939153   -5.2158999    2.1298933 
C    -1.8037198   -1.3298999   -1.8568196 
C    -1.3343395   -0.0325297   -2.2412411 
C    -1.0994274    0.2328272   -3.6094070 
H    -0.7289051    1.2164685   -3.9111175 
C    -1.3248803   -0.7268153   -4.6018445 
H    -1.1248228   -0.4877557   -5.6499839 
C    -1.7900020   -1.9924817   -4.2329019 
H    -1.9575778   -2.7655515   -4.9882194 
C    -2.0152235   -2.2775316   -2.8818615 
H    -2.3681221   -3.2639337   -2.5822385 
C     2.0585678   -1.3792588   -1.3003816 
C     1.4888803   -1.9769225   -2.4410875 
H     0.4391308   -2.2701877   -2.4542933 
C     2.2733995   -2.2365648   -3.5757419 
C     3.6157038   -1.8403761   -3.6303574 
H     4.2256776   -2.0541761   -4.5116959 
C     4.1696826   -1.1912926   -2.5204876 
C     3.4122016   -0.9868917   -1.3617997 
H     3.9051331   -0.5179578   -0.5089874 
C     2.5266428   -1.0858593    1.4363251 
C     3.0831171    0.1865194    1.6556057 
H     2.5953060    1.0742147    1.2354936 
C     4.2640772    0.3276094    2.3959821 
C     4.8746928   -0.7921287    2.9707428 
H     5.7796534   -0.6809441    3.5728840 
C     4.2887554   -2.0553447    2.7951742 
C     3.1322232   -2.2114951    2.0181569 
H     2.7156703   -3.2129499    1.8819088 
C     0.1226317   -2.7277624    0.5929169 
H     0.3775341   -2.9104509    1.6531025 
C     0.5299862   -3.9723833   -0.2143495 
H     0.1047496   -4.8627049    0.2748174 
H     0.1390758   -3.9422771   -1.2415944 
H     1.6260601   -4.0888812   -0.2635182 
C     4.8004017    1.7223071    2.6199070 
F     6.0098578    1.7234601    3.2071666 
F     4.8968710    2.4031667    1.4501694 
F     3.9550146    2.4384370    3.4167425 
C     4.9354150   -3.2723345    3.4249589 
F     4.0265448   -4.2536123    3.6479948 
F     5.8980392   -3.7872094    2.6284878 
F     5.5110430   -2.9664852    4.6111579 
C     1.6772025   -2.9748284   -4.7564883 
F     2.6063515   -3.7204342   -5.3900389 
F     0.6770701   -3.8070057   -4.3668187 
F     1.1551002   -2.1242482   -5.6761143 
C     5.5968048   -0.6854996   -2.5693392 
F     6.1591473   -0.6625567   -1.3382060 
F     6.3701145   -1.4456548   -3.3704528 
F     5.6435474    0.5852043   -3.0517541 
H    -0.0888004    2.8294258   -2.7585079 
C     2.6961053    2.6824303   -2.5780207 
C     1.6210024    1.7303910   -2.0273814 
C     0.2884538    2.4568986   -1.7877650 
C     0.5007699    3.6642659   -0.8463795 
C     1.5843761    4.6159650   -1.3838678 
C     2.9092047    3.8798950   -1.6387685 
H     2.3852327    3.0441543   -3.5779755 
H     3.6378247    2.1253161   -2.7219185 
H     1.9685102    1.3230062   -1.0598500 
H     1.4823940    0.8714282   -2.7051009 
H    -0.4413262    4.2153291   -0.6839494 
H     0.8099617    3.2727742    0.1432334 
H     1.2284806    5.0725713   -2.3282923 
H     1.7287582    5.4454738   -0.6682707 
H     3.3211729    3.5177634   -0.6756620 
H     3.6587421    4.5723110   -2.0607977 
H    -2.4529452    3.1931063   -0.4074728 
C    -5.1358845    2.4718600   -0.9290952 
C    -3.8572960    1.6164646   -0.8677140 
C    -2.5943175    2.4332039   -1.1992728 
C    -2.7467915    3.1547498   -2.5566319 
C    -4.0233831    4.0183937   -2.5809878 
C    -5.2753913    3.1806010   -2.2840239 
H    -5.1041243    3.2328913   -0.1279104 
H    -6.0144371    1.8320384   -0.7281933 
H    -3.9436718    0.7911423   -1.6004409 
H    -3.7492099    1.1527445    0.1281657 
H    -1.8725962    3.7962907   -2.7610071 
H    -2.8031817    2.4049015   -3.3690248 
H    -3.9291188    4.8221930   -1.8245668 
H    -4.1087491    4.5141071   -3.5645045 
H    -5.4112900    2.4270612   -3.0850054 
H    -6.1769961    3.8185226   -2.2924555 
