90
Energy =
C     2.9971003    0.6535125   -0.6240161 
C     3.0001453   -0.0634584    0.5902394 
C     2.6423057   -1.4399842    0.6262502 
H     3.2176474    0.4598417    1.5297797 
Pd    0.8744761   -0.1853381   -0.0258750 
P    -0.8764707   -1.6326649    0.6277341 
P    -0.5365535    1.5601871   -0.8894861 
H     3.0113446    0.0518514   -1.5448443 
H     2.7660392   -2.0000097   -0.3124829 
C     4.3812498    4.6829336   -1.2341035 
C     4.2591007    3.7921614   -2.3112209 
C     3.8057190    2.4864274   -2.0923499 
C     3.4558779    2.0410400   -0.7946464 
C     3.6089955    2.9452440    0.2830489 
C     4.0628018    4.2495908    0.0641461 
H     4.7348336    5.7053583   -1.4011978 
H     4.5255038    4.1131595   -3.3234912 
H     3.7269597    1.7911866   -2.9346374 
H     3.3679150    2.6306285    1.3027803 
H     4.1723685    4.9339735    0.9117548 
C     2.8429841   -3.9070717    4.1504814 
C     2.5668160   -2.5348749    4.2763926 
C     2.5055509   -1.7213399    3.1406345 
C     2.7119632   -2.2613587    1.8498149 
C     3.0099489   -3.6392594    1.7416539 
C     3.0731198   -4.4537191    2.8791380 
H     2.8870519   -4.5431799    5.0403107 
H     2.3966011   -2.0988681    5.2662951 
H     2.2786455   -0.6561198    3.2552086 
H     3.1956207   -4.0716860    0.7529500 
H     3.3063144   -5.5182010    2.7728033 
Fe   -2.9875086   -0.6305107   -1.8530372 
C    -1.9519688   -1.9743119   -0.7951737 
C    -1.4460741   -1.8881025   -2.1533386 
H    -0.4315503   -1.5877115   -2.4279760 
C    -2.5084484   -2.2208639   -3.0529021 
H    -2.4511914   -2.2097456   -4.1426976 
C    -3.6721122   -2.5250390   -2.2737959 
H    -4.6564332   -2.7867655   -2.6664159 
C    -3.3388666   -2.3898062   -0.8876769 
C    -2.2198408    1.2075802   -1.5272753 
C    -3.3960140    0.9895474   -0.7044025 
H    -3.4420306    1.0417325    0.3834581 
C    -4.5104537    0.7146715   -1.5616085 
H    -5.5262998    0.4902903   -1.2321703 
C    -4.0518153    0.7606843   -2.9161052 
H    -4.6527272    0.5707674   -3.8070372 
C    -2.6498584    1.0590144   -2.9049010 
C    -0.9214744    2.7467169    0.5269840 
C     0.3293970    2.4863084   -2.2718197 
H    -4.0243531   -2.5587124   -0.0582716 
H    -2.0218894    1.1349833   -3.7913750 
C    -0.3995427   -3.3529039    1.2042337 
C    -1.8427885   -0.7746238    1.9950564 
H    -1.4824295    2.0737255    1.2052165 
H     1.2417661    2.8451720   -1.7604508 
H     0.3934926   -3.1795527    1.9532782 
H    -1.8798886    0.2575670    1.6024250 
C    -1.5344778   -4.1605919    1.8559087 
H    -1.1672132   -5.1785509    2.0786015 
H    -1.8707969   -3.7185996    2.8069803 
H    -2.4039013   -4.2610498    1.1826569 
C     0.2026600   -4.1134160    0.0085874 
H     0.6854590   -5.0390675    0.3658632 
H    -0.5805332   -4.3907824   -0.7181098 
H     0.9621859   -3.5151359   -0.5235006 
C    -0.9707712   -0.7407380    3.2641453 
H    -1.4502117   -0.1021982    4.0268252 
H    -0.8326890   -1.7438183    3.7024501 
H     0.0273295   -0.3250245    3.0459959 
C    -3.2905199   -1.2097146    2.2730573 
H    -3.7011106   -0.5758416    3.0799461 
H    -3.9282473   -1.0725551    1.3864126 
H    -3.3669780   -2.2566347    2.6032974 
C     0.3616762    3.1679768    1.2570586 
H     0.1064784    3.7523325    2.1586577 
H     0.9484881    2.2865505    1.5705132 
H     1.0022435    3.7984909    0.6175943 
C    -1.8280225    3.9452631    0.1966934 
H    -2.2354716    4.3584454    1.1365401 
H    -1.2627028    4.7513825   -0.2973991 
H    -2.6771360    3.6685350   -0.4495671 
C     0.7793456    1.4974421   -3.3672491 
H     1.4877429    2.0009731   -4.0473969 
H     1.2807325    0.6125926   -2.9394223 
H    -0.0648154    1.1395555   -3.9784102 
C    -0.4063850    3.7011993   -2.8646218 
H     0.1744247    4.0874465   -3.7213715 
H    -1.4152429    3.4455726   -3.2287643 
H    -0.5026121    4.5198865   -2.1372583 
