112
Energy =
C     2.8139345   -1.6193042   -1.3139569 
C     3.0707612   -0.2282264   -1.4747066 
C     3.2302829    0.6260069   -0.3623279 
H     3.0252131    0.2111897   -2.4786351 
Pd    1.1605819   -0.4285418   -0.3654938 
P    -0.3111754    1.2291284    0.4038219 
P    -0.3554466   -2.1763792   -0.0650081 
H     3.1859259   -2.0985513   -0.3976936 
H     3.4738228    0.1477539    0.5988388 
C     2.1077308   -4.3629426   -4.5592126 
C     1.9782338   -2.9804049   -4.7765218 
C     2.2011148   -2.0779018   -3.7314787 
C     2.5767165   -2.5359538   -2.4449001 
C     2.7153129   -3.9290497   -2.2455321 
C     2.4761769   -4.8318490   -3.2889580 
H     1.9256905   -5.0683137   -5.3764717 
H     1.6904201   -2.6050710   -5.7640852 
H     2.0581651   -1.0077827   -3.9143784 
H     3.0061584   -4.3034833   -1.2584678 
H     2.5815209   -5.9065461   -3.1082385 
C     4.2155663    4.8154174   -0.4248660 
C     4.3834950    4.0510643    0.7391333 
C     4.0542631    2.6904393    0.7377326 
C     3.5504878    2.0609628   -0.4240494 
C     3.4158427    2.8400658   -1.5978868 
C     3.7380448    4.2002029   -1.5949586 
H     4.4682908    5.8805337   -0.4270010 
H     4.7758541    4.5152212    1.6498671 
H     4.1929987    2.0964320    1.6475850 
H     3.0519514    2.3834402   -2.5228499 
H     3.6210030    4.7858571   -2.5126698 
Fe   -2.7415565    0.4671574    3.0657309 
C    -1.8424170    0.6717049    1.2338597 
C    -2.2313930   -0.7112080    1.4934850 
C    -3.6581286   -0.7263125    1.7093396 
C    -4.1552793    0.6118948    1.6028660 
C    -3.0502438    1.4731467    1.3242525 
C    -2.5560018   -0.5989856    4.8055859 
C    -1.4762430    0.3334901    4.6761407 
C    -2.0393677    1.6537497    4.5860746 
C    -3.4648675    1.5334055    4.6575668 
C    -3.7853393    0.1415543    4.7915497 
C    -1.3359885   -1.9292030    1.5364620 
H    -4.2577546   -1.6026942    1.9595332 
H    -5.1895523    0.9245084    1.7576534 
H    -3.1100380    2.5533079    1.1860500 
H    -2.4617354   -1.6827356    4.8929513 
H    -0.4144937    0.0811536    4.6585120 
H    -1.4826730    2.5852871    4.4876519 
H    -4.1822603    2.3535980    4.5944808 
H    -4.7897332   -0.2829489    4.8435048 
H    -0.5093686   -1.7208246    2.2416977 
C    -2.0612686   -3.2084751    1.9871704 
H    -2.5669914   -3.0251033    2.9500184 
H    -2.8199713   -3.5293886    1.2541837 
H    -1.3485924   -4.0361149    2.1253652 
H    -1.7266217    2.8186182   -0.7789891 
C    -2.4049473    1.6271395   -3.2377747 
C    -1.8264635    1.0006738   -1.9580129 
C    -1.0301671    2.0340561   -1.1334319 
C     0.0705187    2.6853044   -1.9908918 
C    -0.5089837    3.3065752   -3.2742841 
C    -1.3022325    2.2739980   -4.0914715 
H    -3.1555868    2.3943582   -2.9628608 
H    -2.9397890    0.8510097   -3.8142016 
H    -1.1507371    0.1671797   -2.2351179 
H    -2.6347441    0.5638311   -1.3474298 
H     0.6240593    3.4474072   -1.4157383 
H     0.8016352    1.8985643   -2.2633084 
H    -1.1738219    4.1491302   -3.0004650 
H     0.3108113    3.7366440   -3.8782317 
H    -0.6112812    1.4843171   -4.4498995 
H    -1.7360395    2.7468628   -4.9904947 
H     1.2853892    2.9566882    0.7220707 
C     1.7895194    3.1397706    3.5104684 
C     1.1022309    2.0435335    2.6739568 
C     0.4694338    2.6083413    1.3855467 
C    -0.4658639    3.7964260    1.6878250 
C     0.2820620    4.8920061    2.4709485 
C     0.8662268    4.3389111    3.7801561 
H     2.6797403    3.5009366    2.9649830 
H     2.1513046    2.7065642    4.4605963 
H     0.3042368    1.5617033    3.2632228 
H     1.8258319    1.2481296    2.4134763 
H    -0.8757517    4.2159833    0.7518476 
H    -1.3208662    3.4359624    2.2898256 
H     1.1014140    5.2917050    1.8416257 
H    -0.4025628    5.7344115    2.6763618 
H     0.0388302    4.0328640    4.4501671 
H     1.4206977    5.1283766    4.3178420 
C    -3.1421797   -2.9114910   -3.7071275 
C    -1.7678757   -3.1880626   -3.7741108 
C    -0.9555497   -2.9963944   -2.6504518 
C    -1.5107047   -2.5282421   -1.4384956 
C    -2.8925160   -2.2542631   -1.3767382 
C    -3.6999102   -2.4480293   -2.5065730 
H    -3.7771190   -3.0585511   -4.5869434 
H    -1.3178072   -3.5525713   -4.7031683 
H     0.1127434   -3.2150973   -2.7156723 
H    -3.3430731   -1.8717432   -0.4590713 
H    -4.7715338   -2.2319449   -2.4450597 
C     1.9202831   -6.0940829    0.9927995 
C     2.2779506   -4.8649023    1.5717819 
C     1.5847889   -3.6996058    1.2215810 
C     0.5195931   -3.7515620    0.2961567 
C     0.1543571   -4.9890694   -0.2670031 
C     0.8591268   -6.1522778    0.0778984 
H     2.4679695   -7.0042844    1.2575781 
H     3.1017655   -4.8143172    2.2912191 
H     1.8757426   -2.7383526    1.6645484 
H    -0.6754475   -5.0477431   -0.9773631 
H     0.5742336   -7.1087734   -0.3724185 
