134
Energy =
C     2.8928267    1.7178296   -0.8856248 
C     2.1856215    1.3262290   -2.0301921 
C     0.8903150    1.8668285   -2.3266370 
H     2.6127967    0.5737603   -2.7044060 
Pd    0.7118438    0.5759497   -0.5356723 
P    -1.6100874    0.7870098   -0.3937541 
P     1.2107682   -0.8095964    1.4036905 
H     2.4933501    2.5699708   -0.3165541 
H     0.6771174    2.8682202   -1.9239545 
C     6.9451586    0.7497930    0.1455008 
C     6.2296301    1.7127994    0.8736056 
C     4.9079781    2.0120038    0.5262837 
C     4.2670073    1.3447504   -0.5472709 
C     5.0092504    0.3859992   -1.2799642 
C     6.3323007    0.0966098   -0.9382321 
H     7.9809008    0.5161095    0.4118476 
H     6.7065643    2.2392038    1.7064374 
H     4.3616232    2.7836645    1.0789664 
H     4.5469141   -0.1395624   -2.1210119 
H     6.8926432   -0.6443879   -1.5172052 
C    -1.1787510    1.0055091   -6.0013690 
C    -0.4155333    0.0030685   -5.3792035 
C     0.2596012    0.2696420   -4.1838144 
C     0.1808628    1.5460179   -3.5803556 
C    -0.5792792    2.5473391   -4.2233076 
C    -1.2520022    2.2804234   -5.4218092 
H    -1.7151986    0.7898771   -6.9304886 
H    -0.3556447   -0.9948633   -5.8262384 
H     0.8287342   -0.5271016   -3.6935574 
H    -0.6330334    3.5496977   -3.7882592 
H    -1.8337934    3.0757562   -5.8986459 
Fe   -2.0568016   -3.6250546   -1.6265518 
C    -1.4829489   -1.8620686   -0.8574058 
C    -0.6482034   -2.9125993   -0.3016408 
C    -0.0330352   -3.6148650   -1.4017657 
H     0.6269503   -4.4772560   -1.2970010 
C    -0.4105141   -2.9714693   -2.6217514 
H    -0.1132410   -3.2685718   -3.6291020 
C    -1.2946628   -1.8924665   -2.2966574 
H    -1.7496802   -1.2381598   -3.0376219 
C    -4.0977875   -3.6494794   -1.5447918 
H    -4.7502421   -2.8180154   -1.2688259 
C    -3.5495445   -4.6298674   -0.6506731 
H    -3.7162348   -4.6772046    0.4273056 
C    -2.7523875   -5.5396322   -1.4274061 
H    -2.1997091   -6.4015073   -1.0484603 
C    -2.8102323   -5.1195131   -2.7988084 
H    -2.2949149   -5.5928066   -3.6364637 
C    -3.6408986   -3.9506140   -2.8719616 
H    -3.8663854   -3.3713769   -3.7699502 
C    -0.3772227   -3.2325919    1.1222656 
C     0.3391663   -2.3555295    1.9837022 
C     0.5279618   -2.7508103    3.3293922 
H     1.0652542   -2.1000015    4.0228142 
C     0.0580510   -3.9765482    3.8150971 
H     0.2219613   -4.2418479    4.8643590 
C    -0.6014033   -4.8572969    2.9492322 
H    -0.9595507   -5.8276922    3.3076661 
C    -0.8125800   -4.4782619    1.6208182 
H    -1.3400787   -5.1417335    0.9311692 
C    -1.9129757    2.0335707    0.9338269 
C    -0.9404707    3.0476952    1.0206885 
H    -0.0776640    3.0256418    0.3468383 
C    -1.0439077    4.0653523    1.9751244 
C    -2.0967945    4.0568145    2.8987245 
H    -2.1628203    4.8250764    3.6734155 
C    -3.0592046    3.0383111    2.8248403 
C    -2.9982255    2.0531106    1.8269711 
H    -3.7899450    1.3036310    1.7767503 
C    -2.6590440    1.5044708   -1.7439035 
C    -3.3794085    0.6837966   -2.6273541 
H    -3.3785452   -0.4022879   -2.5243034 
C    -4.1457406    1.2327270   -3.6635434 
C    -4.2341062    2.6171995   -3.8297917 
H    -4.8398741    3.0460277   -4.6316521 
C    -3.5279011    3.4447421   -2.9428605 
C    -2.7422828    2.9019466   -1.9180958 
H    -2.2101444    3.5850108   -1.2499551 
C    -2.3995676   -0.9027463   -0.1153524 
H    -3.3576141   -0.8701941   -0.6568235 
C    -2.7173214   -1.2633096    1.3443070 
H    -2.8981893   -2.3484013    1.4078852 
H    -1.9009356   -1.0177312    2.0386523 
H    -3.6306908   -0.7495515    1.6810341 
C    -4.8504474    0.2632524   -4.5872078 
F    -3.9468524   -0.5353394   -5.2229717 
F    -5.6660945   -0.5683015   -3.8901556 
F    -5.5850083    0.8837811   -5.5269291 
C    -3.5268416    4.9419395   -3.1636086 
F    -2.5411949    5.2889678   -4.0405606 
F    -4.6916743    5.3771211   -3.6820325 
F    -3.2923360    5.6197309   -2.0176075 
C    -0.0070208    5.1685214    1.9730424 
F    -0.2796409    6.0956601    1.0292279 
F     0.0705732    5.7945952    3.1636294 
F     1.2325971    4.6699725    1.6879119 
C    -4.1299440    2.9507327    3.8936291 
F    -3.6707579    2.2393477    4.9569516 
F    -4.4880282    4.1686515    4.3466844 
F    -5.2386399    2.3240868    3.4406974 
H     1.9115052   -0.4189309    3.6931851 
C     0.1676901    1.3173399    4.9316766 
C    -0.0199926    0.5450017    3.6122803 
C     1.3436307    0.2048923    2.9778793 
C     2.1664416    1.4833292    2.7395109 
C     2.3642052    2.2634494    4.0525252 
C     1.0247208    2.5790445    4.7384117 
H     0.6512009    0.6516603    5.6735551 
H    -0.8233732    1.5839699    5.3407300 
H    -0.6002328    1.1614581    2.9058119 
H    -0.6084163   -0.3706369    3.7967658 
H     3.1459846    1.2276759    2.3011025 
H     1.6378778    2.1206671    2.0056084 
H     2.9964653    1.6621686    4.7349793 
H     2.9170628    3.1978137    3.8470117 
H     0.4655694    3.3033399    4.1194501 
H     1.2015513    3.0737332    5.7098707 
H     3.5061953   -0.6012235    0.7367910 
C     4.2981447   -3.0983072   -0.3477103 
C     2.9033008   -2.5428068   -0.0080867 
C     2.9528869   -1.4807522    1.1130367 
C     3.6855064   -2.0156629    2.3578974 
C     5.0926256   -2.5223554    1.9831199 
C     5.0224436   -3.6148091    0.9049516 
H     4.9070305   -2.3018859   -0.8111269 
H     4.1975416   -3.9020129   -1.0997868 
H     2.2611825   -3.3786601    0.3274425 
H     2.4225031   -2.1167859   -0.9095559 
H     3.7704337   -1.2285655    3.1282457 
H     3.1088201   -2.8497057    2.8003455 
H     5.6963832   -1.6717989    1.6104501 
H     5.5983435   -2.9023884    2.8888707 
H     4.4803145   -4.4922555    1.3097588 
H     6.0375664   -3.9633318    0.6430919 
