112
Energy =
C     2.3746881    2.3703757    0.3521319 
C     1.2718920    3.0180829    0.9841951 
C     0.6857120    2.4779368    2.1509536 
H     0.7964206    3.8694213    0.4804731 
Pd    0.6037201    1.0003125    0.3912832 
P    -1.4359294   -0.1363190    0.6676679 
P     1.6030581   -0.6041954   -0.9820645 
H     3.0592878    1.7946706    0.9924731 
H     1.2876267    1.7438472    2.7091776 
C     4.0812041    3.7225439   -3.3635394 
C     2.6949911    3.8177266   -3.1554800 
C     2.1333275    3.3841536   -1.9511701 
C     2.9436674    2.8414702   -0.9270268 
C     4.3365456    2.7598622   -1.1466556 
C     4.8995273    3.1976221   -2.3526759 
H     4.5197191    4.0592549   -4.3084831 
H     2.0492046    4.2217909   -3.9419784 
H     1.0477032    3.4375904   -1.8097583 
H     4.9795686    2.3568305   -0.3579280 
H     5.9825035    3.1310813   -2.5017840 
C    -2.5539119    4.0826075    4.4766770 
C    -1.8701186    2.9291935    4.8920707 
C    -0.8095634    2.4305977    4.1277685 
C    -0.4193104    3.0627300    2.9232520 
C    -1.1067421    4.2340025    2.5265066 
C    -2.1600937    4.7370545    3.2973115 
H    -3.3815607    4.4777955    5.0742270 
H    -2.1608910    2.4214430    5.8175113 
H    -0.2724229    1.5342807    4.4584801 
H    -0.8206463    4.7561738    1.6081692 
H    -2.6804929    5.6451583    2.9762800 
Fe    0.1879988   -3.7496073   -1.9422040 
C     0.8606245   -2.2536496   -0.7382753 
C    -0.5647121   -2.4782430   -0.5512291 
C    -0.7344810   -3.8461472   -0.1334666 
C     0.5572800   -4.4681369   -0.0736006 
C     1.5421619   -3.4999850   -0.4559561 
C    -1.1209102   -3.8879197   -3.5199887 
C     0.0515381   -3.1591496   -3.9020799 
C     1.1885529   -4.0160268   -3.7031732 
C     0.7142694   -5.2714864   -3.1957613 
C    -0.7136187   -5.1908932   -3.0773989 
C     3.3358389   -0.8290307   -0.4226615 
C     4.4531063   -0.3922706   -1.1602557 
C     5.7444851   -0.5195252   -0.6227106 
C     5.9322250   -1.0619742    0.6547422 
C     4.8190752   -1.4767975    1.4060916 
C     3.5302178   -1.3589084    0.8751648 
C     1.6075600   -0.2356466   -2.7736282 
C     2.4761051   -0.8783287   -3.6797837 
C     2.3958773   -0.5939709   -5.0486681 
C     1.4378750    0.3156084   -5.5265092 
C     0.5627462    0.9475620   -4.6311343 
C     0.6540820    0.6809210   -3.2576017 
C    -1.6328675   -1.4296371   -0.7116096 
H    -1.6862253   -4.3420622    0.0629627 
H     0.7524526   -5.5128320    0.1752633 
H     2.6188232   -3.6631012   -0.5189806 
H    -2.1456324   -3.5153747   -3.5603292 
H     0.0745812   -2.1335989   -4.2727345 
H     2.2304772   -3.7632453   -3.9011544 
H     1.3329138   -6.1280905   -2.9218059 
H    -1.3714318   -5.9750306   -2.6979028 
H     4.3252107    0.0624252   -2.1452915 
H     2.6671698   -1.6838530    1.4664343 
H     3.2042124   -1.6100983   -3.3177862 
H    -0.0119033    1.1870801   -2.5487214 
H    -1.3807706   -0.8364235   -1.6110717 
C    -3.0408034   -2.0187139   -0.9078306 
H    -2.9870457   -2.8049027   -1.6784273 
H    -3.4435935   -2.4728096    0.0097777 
H    -3.7540693   -1.2555204   -1.2565144 
H     6.6050945   -0.1821413   -1.2097601 
H     4.9565970   -1.8948647    2.4086690 
H     3.0748548   -1.0929819   -5.7477287 
H    -0.1843134    1.6578616   -5.0001290 
H     6.9410236   -1.1585237    1.0689127 
H     1.3743654    0.5292055   -6.5984193 
H    -3.7795595    0.2146372    0.1418790 
C    -3.9739371    2.8015507   -0.9335704 
C    -2.7341032    1.9268706   -0.6789784 
C    -2.9804111    0.9092537    0.4603497 
C    -3.4565575    1.6087263    1.7487816 
C    -4.6890473    2.4906325    1.4769461 
C    -4.4280003    3.5066607    0.3540033 
H    -4.7958244    2.1639447   -1.3148167 
H    -3.7526526    3.5391021   -1.7262161 
H    -1.8749595    2.5686948   -0.3948076 
H    -2.4415472    1.4008589   -1.6078770 
H    -3.7012696    0.8634593    2.5250054 
H    -2.6442954    2.2347218    2.1489070 
H    -5.5471171    1.8476913    1.1972419 
H    -4.9716065    3.0104963    2.4100390 
H    -3.6390125    4.2123452    0.6798474 
H    -5.3343104    4.1082388    0.1624163 
H    -1.6963928   -0.0601842    2.9941920 
C    -0.2026423   -2.0154983    4.2294783 
C    -0.1650465   -1.5521281    2.7622390 
C    -1.5255031   -0.9442609    2.3457695 
C    -2.6758907   -1.9447417    2.5814995 
C    -2.7060900   -2.3944419    4.0545050 
C    -1.3580875   -2.9986541    4.4810356 
H    -0.3263569   -1.1306785    4.8857196 
H     0.7643997   -2.4768644    4.4997220 
H     0.0754962   -2.4091562    2.1065338 
H     0.6352748   -0.8015584    2.6141545 
H    -3.6472901   -1.5029617    2.2946464 
H    -2.5165579   -2.8304017    1.9395046 
H    -2.9395585   -1.5206184    4.6945417 
H    -3.5224003   -3.1235942    4.2043848 
H    -1.1767925   -3.9264648    3.9031273 
H    -1.3880520   -3.2899337    5.5459964 
