86
Energy =
C     0.2651884    3.0642023    0.0787096 
C     0.7991696    2.6013093    1.3023524 
C     2.0035132    1.8447585    1.3276099 
H     0.2303831    2.7397943    2.2302246 
Pd    0.3964406    0.7685284    0.1446409 
P     1.4352986   -1.3690593    0.1652186 
P    -1.6211195    0.2924674   -0.9822091 
H     0.9578075    3.1209741   -0.7750125 
H     2.7133347    2.0190537    0.5067879 
C    -3.2775672    5.4404780   -0.4547569 
C    -2.2691422    5.4255776   -1.4300544 
C    -1.1176093    4.6527686   -1.2360998 
C    -0.9487271    3.8826082   -0.0619277 
C    -1.9653311    3.9241944    0.9214410 
C    -3.1179158    4.6905749    0.7239254 
H    -4.1819195    6.0382530   -0.6067669 
H    -2.3808594    6.0153489   -2.3455071 
H    -0.3380041    4.6347469   -2.0056693 
H    -1.8622641    3.3397104    1.8411911 
H    -3.8981454    4.7052709    1.4919204 
C     3.7821523    0.3149242    4.9344953 
C     2.3854567    0.4503626    4.8493698 
C     1.7960077    0.9456962    3.6822296 
C     2.5925236    1.3221733    2.5735815 
C     3.9949890    1.1863492    2.6766051 
C     4.5841495    0.6869900    3.8455941 
H     4.2413824   -0.0775365    5.8473888 
H     1.7545177    0.1580096    5.6950531 
H     0.7041769    1.0096470    3.6139446 
H     4.6271949    1.4865804    1.8331869 
H     5.6730568    0.5915145    3.9074697 
Fe   -0.8986747   -2.9056005   -1.7221807 
C    -1.5848163   -1.0799129   -2.1717109 
C    -2.5956970   -2.0805058   -2.4546123 
H    -3.5869936   -2.1483957   -2.0040346 
C    -2.0554032   -2.9985017   -3.4141448 
H    -2.5631460   -3.8823260   -3.8044901 
C    -0.7243758   -2.5784458   -3.7409702 
H    -0.0421583   -3.0861895   -4.4249778 
C    -0.4315635   -1.3960052   -2.9872004 
C     0.4212567   -2.8313700   -0.2173606 
C     0.7294850   -3.9349011   -1.1077055 
H     1.6497844   -4.0755863   -1.6757393 
C    -0.4047447   -4.8103652   -1.1424638 
H    -0.4915955   -5.7145313   -1.7475736 
C    -1.4145172   -4.2729400   -0.2799291 
H    -2.4058357   -4.6966862   -0.1104781 
C    -0.9104007   -3.0628695    0.2975324 
H     0.5016914   -0.8290271   -3.0052634 
H    -1.4393785   -2.4168090    0.9987151 
C     2.4857352   -1.9224739    1.6499805 
C     3.9265930   -2.0161778    1.0819470 
C     3.8577072   -2.4291546   -0.3978318 
C     2.8347836   -1.5007547   -1.0959207 
H     2.4285122   -1.1173539    2.3974257 
H     4.4189464   -1.0325644    1.1731016 
H     4.5273510   -2.7266374    1.6768781 
H     4.8451137   -2.3637876   -0.8898487 
H     3.5278048   -3.4809196   -0.4751217 
H     2.4022468   -1.9742566   -1.9938472 
C    -2.5864615    1.5991422   -1.9215966 
C    -4.0441001    1.1188718   -1.7792474 
C    -4.2429915    0.7493045   -0.3002794 
C    -3.0506007   -0.1234891    0.1856771 
H    -2.4751425    2.5184475   -1.3232520 
H    -4.7450724    1.9118673   -2.0968131 
H    -4.2240450    0.2470423   -2.4361267 
H    -4.2641517    1.6801676    0.2965610 
H    -5.2001202    0.2282941   -0.1236225 
H    -3.2628642   -1.1918390    0.0045601 
C    -2.7193808    0.0761797    1.6717375 
H    -2.4524793    1.1269185    1.8774275 
H    -3.5967449   -0.1771604    2.2930871 
C    -2.0927813    1.8584124   -3.3455468 
H    -1.0366913    2.1815909   -3.3523058 
H    -2.1822264    0.9565383   -3.9760093 
C     1.9901829   -3.2254118    2.2964384 
H     0.9445038   -3.1417958    2.6377472 
H     2.6166392   -3.4494888    3.1779174 
C     3.4251277   -0.1381345   -1.4921090 
H     2.6506193    0.5341018   -1.9029976 
H     4.2043161   -0.2775220   -2.2618387 
H    -2.6914355    2.6625482   -3.8083984 
H    -1.8733708   -0.5527795    1.9993113 
H     3.8934791    0.3695926   -0.6317059 
H     2.0499426   -4.0826209    1.6042732 
