122
Energy =
C     1.1180422    2.7107400   -1.7760632 
C     0.9958805    1.8025798   -2.8605011 
C    -0.2669527    1.3461124   -3.3038458 
H     1.9061724    1.3837041   -3.3063715 
Pd    0.1816056    0.7474633   -1.1046260 
P    -1.0663846   -1.2621951   -1.2587024 
P     0.9574284    0.5727770    1.1324012 
H     0.2375577    3.3315220   -1.5514379 
H    -1.1345660    1.9671703   -3.0415300 
C     4.8486294    4.5003584   -0.5714582 
C     4.8432705    3.2083390   -1.1244783 
C     3.6402156    2.6138108   -1.5169827 
C     2.4082299    3.2898582   -1.3535084 
C     2.4324850    4.5937149   -0.8109296 
C     3.6389098    5.1945310   -0.4280626 
H     5.7915553    4.9655661   -0.2668710 
H     5.7844552    2.6635743   -1.2536013 
H     3.6569456    1.6089179   -1.9483754 
H     1.4924802    5.1452513   -0.6993815 
H     3.6332619    6.2096040   -0.0175381 
C    -0.9170884   -1.1416743   -6.7524432 
C    -1.9869366   -0.4739110   -6.1397239 
C    -1.7642285    0.3148510   -5.0049718 
C    -0.4694107    0.4483596   -4.4527946 
C     0.5957497   -0.2476049   -5.0725542 
C     0.3745377   -1.0245959   -6.2120157 
H    -1.0861030   -1.7520124   -7.6455697 
H    -2.9977061   -0.5569123   -6.5523393 
H    -2.6023922    0.8464865   -4.5447595 
H     1.6078996   -0.1851048   -4.6622474 
H     1.2137082   -1.5496872   -6.6787817 
Fe   -3.4914497    0.1844625    2.9365664 
C    -1.7809030    0.2692341    1.8336949 
C    -2.6165151   -0.8305073    1.3863423 
C    -3.9026896   -0.2894551    1.0188996 
H    -4.7421665   -0.8711355    0.6357486 
C    -3.8532860    1.1328849    1.1838842 
H    -4.6739398    1.8273271    0.9952408 
C    -2.5548660    1.4791420    1.6870456 
H    -2.2266945    2.4836143    1.9587212 
C    -3.0173997    0.4082135    4.9164432 
H    -2.0382866    0.6624040    5.3277939 
C    -3.5136470   -0.9163905    4.6739135 
H    -2.9836028   -1.8462535    4.8885768 
C    -4.8348147   -0.8053990    4.1217382 
H    -5.4790770   -1.6328271    3.8188572 
C    -5.1598895    0.5897581    4.0352759 
H    -6.0874797    1.0091676    3.6414029 
C    -4.0367589    1.3396441    4.5240138 
H    -3.9644175    2.4280190    4.5692090 
C    -2.1438124   -2.2227145    1.1875245 
C    -1.2801283   -2.5208801    0.0955617 
C    -0.7238394   -3.8114474   -0.0149723 
H    -0.0565536   -4.0516719   -0.8475028 
C    -1.0446317   -4.8104087    0.9159677 
H    -0.5994656   -5.8056556    0.8163417 
C    -1.9593172   -4.5413224    1.9427431 
H    -2.2419474   -5.3271323    2.6508436 
C    -2.5003968   -3.2554824    2.0713167 
H    -3.1917395   -3.0179667    2.8840787 
C    -0.3909502    0.1771867    2.4230659 
H    -0.3120269    1.0337644    3.1138250 
C    -0.1395847   -1.0968747    3.2524706 
H    -1.0610706   -1.3337509    3.8044104 
H     0.1144239   -1.9742898    2.6386144 
H     0.6682145   -0.9306324    3.9821550 
C     1.0632665   -3.9261944   -4.4349092 
C     1.7875763   -3.2517355   -3.4405046 
C     1.1168675   -2.4256570   -2.5300761 
C    -0.2844827   -2.2774957   -2.5864356 
C    -1.0012553   -2.9363969   -3.6021031 
C    -0.3258031   -3.7544042   -4.5193734 
H     1.5817443   -4.5713478   -5.1516687 
H     2.8750407   -3.3632719   -3.3740058 
H     1.6809034   -1.8922614   -1.7606785 
H    -2.0812430   -2.8012960   -3.6979178 
H    -0.8933175   -4.2532355   -5.3115013 
C    -5.5084771   -0.6390424   -2.5131629 
C    -5.0222566   -1.9347535   -2.2729956 
C    -3.6866301   -2.1273216   -1.8958945 
C    -2.8177234   -1.0212475   -1.7752201 
C    -3.3204991    0.2740429   -1.9893644 
C    -4.6582603    0.4655532   -2.3609446 
H    -6.5541880   -0.4916250   -2.8024951 
H    -5.6881028   -2.7984605   -2.3709571 
H    -3.3247627   -3.1373213   -1.6753542 
H    -2.6690449    1.1368097   -1.8228266 
H    -5.0397663    1.4800850   -2.5164227 
H     1.5953611   -1.6786438    0.7649228 
C     3.8717577   -2.5090101    2.0131213 
C     3.0427464   -1.2459494    2.3162431 
C     2.2356915   -0.8223905    1.0663986 
C     3.2297934   -0.5387427   -0.0859020 
C     4.1187381   -1.7600498   -0.3881714 
C     4.8583091   -2.2571153    0.8630175 
H     3.1893493   -3.3410189    1.7480135 
H     4.4120879   -2.8205902    2.9248070 
H     3.7411231   -0.4347170    2.5875368 
H     2.3957017   -1.4177648    3.1868297 
H     2.6744168   -0.2322692   -0.9938934 
H     3.8655677    0.3219035    0.1950768 
H     3.4849269   -2.5808913   -0.7769403 
H     4.8346174   -1.5050033   -1.1910341 
H     5.5967105   -1.4946789    1.1800780 
H     5.4293916   -3.1736561    0.6308704 
H     2.5509285    2.3888127    1.1636479 
C     2.8933096    3.2585489    3.8435813 
C     2.3385410    1.9351048    3.2819928 
C     1.7396573    2.1195515    1.8672300 
C     0.6954277    3.2629317    1.8704800 
C     1.2567206    4.5715525    2.4552217 
C     1.8228871    4.3576588    3.8658470 
H     3.7437504    3.5876952    3.2146062 
H     3.2964878    3.0820366    4.8569444 
H     1.5579223    1.5543873    3.9704316 
H     3.1400472    1.1832810    3.2673670 
H     0.3056064    3.4219195    0.8497911 
H    -0.1681800    2.9589013    2.4921146 
H     2.0620493    4.9477170    1.8000308 
H     0.4614552    5.3389736    2.4612839 
H     1.0065600    4.0635501    4.5557674 
H     2.2444119    5.3003243    4.2577526 
