124
Energy =
C    -0.6414831    2.3657580   -2.3579029 
C    -0.8297812    1.1894794   -3.1080599 
C    -1.9068875    0.2882654   -2.8301941 
H    -0.0730184    0.8892669   -3.8443675 
Pd   -0.5763984    0.4308934   -1.0587384 
P    -1.3814267   -1.3908215    0.1818413 
P     1.1672359    0.9776696    0.4634365 
H    -1.4907287    2.7085867   -1.7468617 
H    -2.8477259    0.7253786   -2.4658347 
C     2.2898548    5.4457940   -3.0105030 
C     1.3024882    5.5882309   -2.0232894 
C     0.3544905    4.5769660   -1.8312412 
C     0.3833118    3.3911409   -2.6031203 
C     1.3751496    3.2703236   -3.6052832 
C     2.3120371    4.2890264   -3.8078739 
H     3.0291330    6.2372006   -3.1695225 
H     1.2646897    6.4938013   -1.4090474 
H    -0.4280598    4.7016893   -1.0750743 
H     1.4139164    2.3783618   -4.2380457 
H     3.0667787    4.1819399   -4.5935939 
C    -2.2788046   -3.3503069   -5.1133957 
C    -1.0285482   -2.9696555   -4.5966070 
C    -0.9054634   -1.7919970   -3.8515358 
C    -2.0315253   -0.9726419   -3.5977113 
C    -3.2804400   -1.3688835   -4.1195621 
C    -3.4008077   -2.5427156   -4.8771531 
H    -2.3757740   -4.2703595   -5.6986231 
H    -0.1482497   -3.5968741   -4.7726912 
H     0.0669056   -1.5118717   -3.4288656 
H    -4.1625937   -0.7450992   -3.9379320 
H    -4.3768740   -2.8279486   -5.2831983 
Fe    2.8700273   -1.6719090    2.2624629 
C     1.4233690   -0.2815934    1.7710482 
C     0.8796514   -1.6377103    1.7967136 
C     1.0905254   -2.1625553    3.1213974 
C     1.7783981   -1.1845684    3.9063046 
C     2.0092856   -0.0407585    3.0779657 
C     4.7810878   -1.2690600    1.6229152 
C     4.7904396   -1.7926315    2.9561826 
C     4.1790611   -3.0904263    2.9261718 
C     3.7946233   -3.3700372    1.5731570 
C     4.1613213   -2.2429447    0.7663792 
C     0.1128451   -2.3846109    0.7304029 
H     0.8061920   -3.1647513    3.4498726 
H     2.1166862   -1.3075980    4.9367955 
H     2.5515119    0.8525442    3.3814882 
H     5.1866548   -0.3037067    1.3158956 
H     5.1709864   -1.2832845    3.8435052 
H     4.0115244   -3.7401352    3.7872956 
H     3.3037331   -4.2820211    1.2290608 
H     4.0154831   -2.1500293   -0.3096898 
H     0.9309439    3.3004393    0.4135792 
C     1.2333700    4.5853376    2.7855383 
C     1.5964506    3.1235146    2.4607095 
C     0.7505360    2.6220125    1.2716754 
C    -0.7457274    2.7148219    1.6275094 
C    -1.1469173    4.1480053    2.0209369 
C    -0.2572181    4.7088439    3.1421238 
H     1.4659462    5.2246092    1.9108135 
H     1.8604352    4.9477677    3.6196195 
H     1.3700171    2.5061843    3.3475326 
H     2.6779634    3.0258050    2.2613900 
H    -1.3553219    2.3692997    0.7721852 
H    -0.9575738    2.0264880    2.4671304 
H    -1.0625892    4.8013580    1.1302861 
H    -2.2097861    4.1644410    2.3228180 
H    -0.4508319    4.1458434    4.0765149 
H    -0.5207771    5.7614584    3.3481990 
H     3.5442412    0.7694285    0.4812551 
C     4.7597572    2.6872341   -1.1362707 
C     3.3272172    2.6557119   -0.5681123 
C     2.8850324    1.2040923   -0.2917797 
C     3.0074584    0.3523123   -1.5731884 
C     4.4360990    0.3863665   -2.1426885 
C     4.8975340    1.8281182   -2.4024232 
H     5.4655219    2.3197530   -0.3645628 
H     5.0402871    3.7346978   -1.3486130 
H     2.6401872    3.1242435   -1.2910813 
H     3.2907013    3.2633077    0.3500941 
H     2.7064825   -0.6873257   -1.3619340 
H     2.2927502    0.7420391   -2.3247082 
H     5.1255070   -0.0962724   -1.4220728 
H     4.4821130   -0.2120950   -3.0707089 
H     4.2770279    2.2676294   -3.2061941 
H     5.9416612    1.8391570   -2.7625797 
H    -1.2982991   -0.2781845    2.2452629 
C    -2.9877612   -1.3211250    4.1202941 
C    -2.5852408   -1.9269194    2.7619757 
C    -2.1570119   -0.8088779    1.7857533 
C    -3.2897724    0.2287860    1.6054026 
C    -3.6958476    0.8257280    2.9657196 
C    -4.1021619   -0.2739363    3.9611415 
H    -2.0964587   -0.8489847    4.5788531 
H    -3.3085177   -2.1266302    4.8051091 
H    -3.4466229   -2.4777969    2.3401640 
H    -1.7701910   -2.6578686    2.9032070 
H    -2.9721975    1.0220722    0.9056893 
H    -4.1731049   -0.2532117    1.1535857 
H    -2.8455707    1.3991786    3.3837123 
H    -4.5223440    1.5451558    2.8238094 
H    -5.0212474   -0.7737699    3.5964330 
H    -4.3530309    0.1703548    4.9407488 
H    -2.1129222   -2.6801397   -1.6950059 
C    -4.8592080   -3.1605906   -1.4925915 
C    -3.9650815   -2.1794814   -0.7128113 
C    -2.4962208   -2.6597712   -0.6570289 
C    -2.4075895   -4.0998534   -0.0964078 
C    -3.3066436   -5.0574103   -0.9026179 
C    -4.7663857   -4.5818798   -0.9199249 
H    -4.5430840   -3.1762604   -2.5506169 
H    -5.9023667   -2.7965296   -1.4731487 
H    -4.3587099   -2.0967585    0.3166416 
H    -4.0185944   -1.1703412   -1.1605097 
H    -1.3691057   -4.4706909   -0.1332475 
H    -2.7182248   -4.1144889    0.9644134 
H    -2.9274251   -5.1158812   -1.9418912 
H    -3.2306012   -6.0738870   -0.4763615 
H    -5.1698895   -4.5959772    0.1121684 
H    -5.3896428   -5.2750136   -1.5124832 
H    -0.2757090   -3.2986390    1.2099686 
C     0.9099068   -2.7934025   -0.5209793 
H     0.2684192   -3.3079464   -1.2574087 
H     1.3397025   -1.9067352   -1.0135417 
H     1.7314505   -3.4697309   -0.2412433 
