124
Energy =
C     3.0281753    0.4346648    1.1783495 
C     3.2987946    0.2556974   -0.2111631 
C     2.7811413    1.1600483   -1.1706559 
H     3.7942574   -0.6663773   -0.5410482 
Pd    1.1241273    0.1444210    0.0206907 
P    -0.4649628    0.0180100   -1.6837721 
P    -0.2742578   -0.3383395    1.8301261 
H     2.8522983    1.4637586    1.5257980 
H     2.5062650    2.1589653   -0.7988213 
C     4.6377682   -2.2325857    4.1405469 
C     4.5864172   -0.8516493    4.3791041 
C     4.0206013    0.0049002    3.4264695 
C     3.5198152   -0.5020929    2.2070280 
C     3.5520667   -1.8993553    1.9921523 
C     4.1063562   -2.7540964    2.9490402 
H     5.0792307   -2.9037421    4.8846465 
H     4.9888873   -0.4393224    5.3102902 
H     3.9873115    1.0842542    3.6133699 
H     3.1182121   -2.3142690    1.0747799 
H     4.1155650   -3.8344984    2.7725791 
C     3.4011611    1.0996605   -5.4210486 
C     2.8282418    2.2162431   -4.7950479 
C     2.6181895    2.2110250   -3.4113622 
C     2.9737519    1.0900031   -2.6258718 
C     3.5259118   -0.0388057   -3.2755050 
C     3.7446203   -0.0269986   -4.6555069 
H     3.5739891    1.1021735   -6.5021609 
H     2.5520621    3.0972516   -5.3836151 
H     2.1812694    3.0909227   -2.9263038 
H     3.7862034   -0.9331683   -2.7011909 
H     4.1784251   -0.9073030   -5.1400282 
Fe   -3.8897377   -1.1016463   -1.1847351 
C    -1.8472466   -1.0991777   -1.2617855 
C    -2.3373386   -1.4040495    0.0795579 
C    -3.1531773   -2.5887678   -0.0294414 
C    -3.1884733   -3.0048766   -1.3998302 
C    -2.3989219   -2.0899367   -2.1626917 
C    -5.1787766    0.1566358   -0.2098378 
C    -4.6775632    0.7818031   -1.3972412 
C    -5.0303779   -0.0468577   -2.5183444 
C    -5.7489264   -1.1839980   -2.0189903 
C    -5.8397192   -1.0592630   -0.5913843 
C    -2.1055549   -0.6052554    1.3410747 
H    -3.6902296   -3.0719868    0.7874880 
H    -3.7510509   -3.8516762   -1.7966616 
H    -2.2089411   -2.1362215   -3.2361176 
H    -5.0676975    0.5375675    0.8072379 
H    -4.1202755    1.7180187   -1.4397593 
H    -4.8098109    0.1521379   -3.5681385 
H    -6.1405561   -2.0092475   -2.6164085 
H    -6.3085523   -1.7758271    0.0857847 
H    -2.3610564    0.4463918    1.1124950 
C    -2.9620786   -1.0913439    2.5189250 
H    -4.0168363   -1.1658349    2.2036530 
H    -2.6348011   -2.0824351    2.8745107 
H    -2.9131671   -0.3886808    3.3635065 
C     1.3430529   -3.5135242    4.8769228 
C     1.4433981   -2.1302415    5.1199046 
C     0.9373552   -1.2056213    4.2073077 
C     0.2895453   -1.6224650    3.0194126 
C     0.2303064   -3.0104182    2.7297137 
C     0.7452549   -3.9192189    3.6739595 
H     1.9441291   -1.7684614    6.0241106 
H     1.0632962   -0.1408574    4.4165766 
H     0.6893493   -4.9907191    3.4452392 
C    -0.8495591    3.6728343    4.1030325 
C    -0.2760856    3.6660118    2.8210926 
C    -0.0802125    2.4231726    2.1880303 
C    -0.4537942    1.2179622    2.8082859 
C    -1.0320863    1.2597549    4.0959582 
C    -1.2318134    2.4833544    4.7570173 
H    -0.9998895    4.6317216    4.6140585 
H     0.3711137    2.3861720    1.1879781 
H    -1.3097420    0.3321328    4.6065656 
C     1.8959333   -4.5139319    5.8635866 
H     1.3560923   -4.4575717    6.8264167 
H     1.8154869   -5.5466808    5.4874154 
H     2.9598166   -4.3044930    6.0767264 
C    -0.3490874   -3.5606099    1.4495932 
H    -0.3568874   -2.8153118    0.6393553 
H     0.2278698   -4.4333955    1.1013528 
H    -1.3914981   -3.8971379    1.5880844 
C     0.1006286    4.9527925    2.1203612 
H     0.2340193    5.7802553    2.8360839 
H     1.0376957    4.8381700    1.5476722 
H    -0.6884775    5.2521046    1.4053642 
C    -1.8384387    2.5313134    6.1420516 
H    -1.1466643    3.0086643    6.8592861 
H    -2.7694164    3.1264898    6.1445919 
H    -2.0761410    1.5222213    6.5161496 
C     1.1993416   -2.0889857   -5.5256886 
C     0.5966074   -0.8486652   -5.6147690 
C     0.1245890   -0.1942574   -4.4482695 
C     0.2328823   -0.7882657   -3.1941597 
H     1.5614877   -2.5985176   -6.4251322 
H     0.4823466   -0.3545975   -6.5845994 
H    -0.3306767    0.7932652   -4.5535790 
C     0.9138650   -2.0539129   -3.0648425 
C     1.3965722   -2.7085994   -4.2574282 
C     2.0922720   -3.9481442   -4.1394114 
C     2.3266730   -4.5236261   -2.9014446 
C     1.8597828   -3.8796544   -1.7266200 
C     1.1640468   -2.6840015   -1.8122948 
H     2.4505846   -4.4354967   -5.0528361 
H     2.8705734   -5.4707084   -2.8265979 
H     2.0477712   -4.3299893   -0.7461846 
H     0.8193123   -2.1925817   -0.8937095 
C    -0.5745968    2.7992715   -1.7804101 
C    -1.1295661    1.6198717   -2.2611119 
C    -2.1758536    1.6764581   -3.2321116 
C    -2.6327589    2.8953810   -3.6979028 
H     0.2269508    2.7579132   -1.0352278 
H    -2.6161804    0.7430267   -3.5927652 
H    -3.4364446    2.9319509   -4.4416394 
C    -2.0758016    4.1222833   -3.2241281 
C    -1.0203263    4.0706613   -2.2427324 
C    -0.4489005    5.2895898   -1.7729355 
C    -0.9036285    6.5101635   -2.2457963 
C    -1.9492519    6.5615659   -3.2068752 
C    -2.5223322    5.3937492   -3.6864447 
H     0.3580487    5.2462430   -1.0335924 
H    -0.4575171    7.4412161   -1.8813489 
H    -2.3001536    7.5326061   -3.5710427 
H    -3.3252970    5.4354511   -4.4303606 
