124
Energy =
C     1.3289220   -3.2994793   -0.0912515 
C     2.1755483   -2.5921309   -0.9892214 
C     3.0728759   -1.6020538   -0.5161408 
H     2.0317272   -2.7111787   -2.0697212 
Pd    0.9159010   -1.0786401   -0.0071794 
P     1.1004324    1.2548529   -0.1819628 
P    -1.2510515   -0.9940699    0.8776908 
H     1.6668598   -3.3919707    0.9507030 
H     3.3539938   -1.6568348    0.5457471 
C    -1.6655506   -6.1984549   -1.1724992 
C    -1.1428716   -5.3424361   -2.1567478 
C    -0.1652754   -4.3981196   -1.8255222 
C     0.3181620   -4.2912981   -0.4990800 
C    -0.1986501   -5.1780846    0.4727463 
C    -1.1845312   -6.1148473    0.1422299 
H    -2.4357499   -6.9313915   -1.4336684 
H    -1.5027139   -5.4103831   -3.1889960 
H     0.2151434   -3.7288509   -2.6047186 
H     0.1848775   -5.1307215    1.4965889 
H    -1.5754679   -6.7832282    0.9160127 
C     5.8683195    0.7077894   -2.8284086 
C     5.8292141    0.8147799   -1.4295674 
C     4.9071674    0.0609895   -0.6952920 
C     3.9887515   -0.7991658   -1.3423809 
C     4.0226944   -0.8749997   -2.7546013 
C     4.9629542   -0.1422592   -3.4849753 
H     6.6015202    1.2805786   -3.4055616 
H     6.5263413    1.4771810   -0.9062681 
H     4.8930829    0.1383099    0.3965291 
H     3.3202174   -1.5214241   -3.2892308 
H     4.9873907   -0.2298934   -4.5757032 
Fe   -2.5138453    1.8006639    2.8792371 
C    -1.2956838    0.3750283    2.0727993 
C    -0.7745320    1.7075346    1.8035582 
C    -0.5627728    2.3554884    3.0700775 
C    -0.9428733    1.4469186    4.1144924 
C    -1.4057858    0.2318468    3.5102256 
C    -3.5215561    3.5622005    3.0473712 
C    -3.9461430    2.8597096    1.8698236 
C    -4.4666841    1.5825875    2.2784811 
C    -4.3587279    1.4949088    3.7048501 
C    -3.7794321    2.7194166    4.1813597 
C    -0.4209159    2.2162545    0.4365821 
H    -0.1990087    3.3739990    3.2121026 
H    -0.9258241    1.6594447    5.1849267 
H    -1.7712309   -0.6516962    4.0342544 
H    -3.0718100    4.5563876    3.0760437 
H    -3.8886481    3.2425748    0.8492407 
H    -4.8671067    0.8072610    1.6231377 
H    -4.6520511    0.6411717    4.3181571 
H    -3.5499976    2.9579308    5.2214731 
H    -1.2039414    1.8896206   -0.2664859 
C    -0.2690802    3.7368257    0.3364185 
H    -1.2117129    4.2148758    0.6573129 
H     0.5437169    4.1098472    0.9809840 
H    -0.0574444    4.0419045   -0.7019153 
C     4.6938007    3.4058559    1.9231224 
C     4.1247264    3.9137151    0.7384279 
C     3.0497350    3.2623817    0.1322058 
C     2.5042929    2.0747056    0.6733562 
C     3.0271938    1.5752408    1.8985547 
C     4.1174156    2.2528671    2.4815571 
H     4.5261662    4.8269810    0.2852155 
H     2.6250145    3.6856908   -0.7819722 
H     4.5290569    1.8594069    3.4189458 
C     1.0124171    2.1605088   -4.7258089 
C    -0.1600551    1.7754062   -4.0520737 
C    -0.0818926    1.5262075   -2.6703928 
C     1.1385314    1.6585305   -1.9737388 
C     2.3092607    1.9908873   -2.6862554 
C     2.2510412    2.2669328   -4.0651183 
H     0.9609759    2.3824492   -5.7988801 
H    -0.9922722    1.2173799   -2.1447870 
H     3.2748039    2.0429876   -2.1747288 
C     5.8821723    4.0829552    2.5649092 
H     6.7835332    3.9662405    1.9348952 
H     5.7070722    5.1672364    2.6794930 
H     6.1058045    3.6602412    3.5576956 
C     2.4536970    0.3874701    2.6364602 
H     3.2214987   -0.1085900    3.2530379 
H     1.6295596    0.7000157    3.3024260 
H     2.0251089   -0.3580428    1.9381462 
C    -1.4746999    1.6159656   -4.7831426 
H    -2.3185761    2.0054569   -4.1886302 
H    -1.4623804    2.1352852   -5.7553638 
H    -1.6856509    0.5474369   -4.9740318 
C     3.4871223    2.6850726   -4.8302596 
H     4.3511999    2.8186636   -4.1608680 
H     3.7587436    1.9281155   -5.5883680 
H     3.3123994    3.6340208   -5.3680062 
C    -3.0184237   -4.7243208    3.0587460 
C    -3.7461082   -4.0626613    2.0857967 
C    -3.2044806   -2.9218928    1.4417150 
C    -1.9401328   -2.4406885    1.7748690 
H    -3.4294646   -5.6114025    3.5528026 
H    -4.7422553   -4.4158210    1.8013689 
H    -3.7935163   -2.4203378    0.6677868 
C    -1.1644663   -3.1022175    2.7915314 
C    -1.7204985   -4.2697560    3.4333743 
C    -0.9476215   -4.9569440    4.4162662 
C     0.3203185   -4.5201575    4.7630169 
C     0.8613298   -3.3609677    4.1470616 
C     0.1330785   -2.6684539    3.1925919 
H    -1.3770552   -5.8445430    4.8935497 
H     0.9034048   -5.0605567    5.5154891 
H     1.8584881   -3.0083810    4.4312555 
H     0.5602035   -1.7726507    2.7320474 
C    -3.1478720    0.4436651   -0.6718544 
C    -2.3831219   -0.7058877   -0.5290575 
C    -2.3646469   -1.6857564   -1.5707594 
C    -3.1167231   -1.4993795   -2.7141571 
H    -3.1529808    1.1834330    0.1324989 
H    -1.7602757   -2.5904615   -1.4523185 
H    -3.1080898   -2.2604478   -3.5023576 
C    -3.9029369   -0.3216300   -2.8980140 
C    -3.9107485    0.6748782   -1.8553032 
C    -4.6738644    1.8645639   -2.0442649 
C    -5.3976035    2.0633448   -3.2096043 
C    -5.3948073    1.0775095   -4.2330770 
C    -4.6650544   -0.0909850   -4.0788724 
H    -4.6838958    2.6215898   -1.2532489 
H    -5.9790817    2.9811677   -3.3438614 
H    -5.9743794    1.2454603   -5.1465912 
H    -4.6606785   -0.8502602   -4.8685057 
