112
Energy =
C     2.5224644    1.6766208   -1.7621969 
C     1.5593654    1.3698510   -2.7483070 
C     0.2908865    2.0307758   -2.7682267 
H     1.7372439    0.5339490   -3.4367688 
Pd    0.5453378    0.8795668   -0.8659993 
P    -1.5640382    0.7688202    0.1530219 
P     1.3935267   -0.5722213    0.7440686 
H     2.3886409    2.6299129   -1.2265435 
H     0.2627674    3.0681322   -2.4052150 
C     6.4950985    0.0888061   -1.3809107 
C     6.0971098    1.2120411   -0.6412043 
C     4.7944269    1.7053342   -0.7682533 
C     3.8601674    1.0877546   -1.6336109 
C     4.2754351   -0.0510523   -2.3634267 
C     5.5789605   -0.5380182   -2.2417859 
H     7.5150049   -0.2982077   -1.2889096 
H     6.8057243    1.7103851    0.0281970 
H     4.4968605    2.5978562   -0.2063827 
H     3.5758178   -0.5596554   -3.0330255 
H     5.8826480   -1.4181017   -2.8166869 
C    -2.7831699    0.9812945   -5.6054270 
C    -1.9598346   -0.0179409   -5.0589742 
C    -0.9579101    0.3183816   -4.1424052 
C    -0.7570915    1.6615448   -3.7443140 
C    -1.5841473    2.6555091   -4.3120360 
C    -2.5843028    2.3192090   -5.2343915 
H    -3.5689728    0.7181016   -6.3206401 
H    -2.1047578   -1.0648714   -5.3461096 
H    -0.3347815   -0.4709116   -3.7061046 
H    -1.4345253    3.7043373   -4.0323134 
H    -3.2108665    3.1065316   -5.6661699 
Fe   -0.4655693   -3.4319729    0.0907202 
C     0.1992392   -1.8531492    1.1939859 
C    -1.2667614   -1.8589059    1.1160963 
C    -1.7311808   -3.0497413    1.7224612 
C    -0.6338913   -3.8899348    2.3846262 
C     0.5443438   -3.1009603    1.8206938 
C     0.3501281   -5.1182828   -0.7764251 
C     0.6642277   -5.0741440    0.6108390 
C    -0.5483370   -5.2812298    1.5379475 
C    -1.6187531   -5.1665620    0.4514483 
C    -1.0899179   -5.1658010   -0.8561751 
C     1.9489360    0.2576052    2.2923359 
C     2.5788396    1.5138740    2.1868287 
C     3.0882414    2.1489002    3.3271929 
C     2.9495784    1.5443504    4.5869462 
C     2.2987374    0.3061534    4.7020862 
C     1.8036977   -0.3400615    3.5600698 
C     2.8333297   -1.6031623    0.2530539 
C     2.6588940   -2.4893039   -0.8318913 
C     3.6849604   -3.3736891   -1.1883396 
C     4.8996548   -3.3608270   -0.4854255 
C     5.0915313   -2.4493949    0.5636391 
C     4.0632288   -1.5707681    0.9357275 
C    -2.1131900   -1.0205466    0.1735162 
H    -2.7963460   -3.2831955    1.7917539 
H    -0.7013930   -4.0397722    3.4860719 
H     1.5837432   -3.3354991    2.0614276 
H     1.0600656   -5.2100890   -1.5994427 
H     1.6973255   -5.0985082    0.9637821 
H    -0.5726749   -6.1945488    2.1748446 
H    -2.6904365   -5.2180494    0.6552842 
H    -1.6856337   -5.1752116   -1.7726045 
H     2.6699326    1.9883400    1.2050295 
H     1.3002260   -1.3073104    3.6558173 
H     1.7035054   -2.5026887   -1.3700601 
H     4.2161708   -0.8725298    1.7641940 
H     3.5838752    3.1208411    3.2351286 
H     2.1772090   -0.1603376    5.6851039 
H     3.5404436   -4.0679380   -2.0231783 
H     6.0442138   -2.4237562    1.1022861 
H     3.3387056    2.0436458    5.4801148 
H     5.7025479   -4.0509572   -0.7650748 
H    -3.1607255   -1.0312570    0.5206284 
C    -2.0064812   -1.6883413   -1.2247348 
H    -0.9752255   -2.1465834   -1.3372182 
H    -2.7683643   -2.4745317   -1.3391112 
H    -2.0981770   -0.9841850   -2.0684492 
H    -3.7101668    1.7830737    0.4387925 
H    -0.6381371    0.5038910    2.3163977 
C    -5.0893973    1.9721800   -1.9235700 
C    -3.8418174    1.1228450   -1.6095694 
C    -3.0439563    1.7536150   -0.4474808 
C    -2.6430551    3.2042101   -0.7966007 
C    -3.8903659    4.0543830   -1.1003644 
C    -4.7296209    3.4349048   -2.2290764 
H    -5.7769263    1.9357533   -1.0552828 
H    -5.6309907    1.5233829   -2.7756593 
H    -3.2015223    1.0585988   -2.5086045 
H    -4.1583331    0.0954455   -1.3576884 
H    -2.0597191    3.6624640    0.0191407 
H    -1.9869063    3.1786027   -1.6832044 
H    -4.5045149    4.1367415   -0.1817661 
H    -3.5826480    5.0817745   -1.3664183 
H    -4.1522036    3.4724645   -3.1714233 
H    -5.6477006    4.0267775   -2.3931967 
C    -2.8356488    1.4771009    4.1348785 
C    -2.7401824    0.7232210    2.7858054 
C    -1.4752297    1.1467634    1.9871812 
C    -1.0661468    2.5979029    2.3074889 
C    -0.6492737    2.7212637    3.7949065 
C    -1.4366596    1.7483522    4.7065806 
H    -3.4498690    0.8904726    4.8400902 
H    -3.3612640    2.4399229    3.9907922 
H    -3.6624794    0.9033297    2.2028229 
H    -2.6896124   -0.3650990    2.9677798 
H    -0.2375732    2.9212881    1.6504798 
H    -1.9195122    3.2684984    2.0994360 
H     0.4309360    2.5234794    3.8920702 
H    -0.8120268    3.7638270    4.1220380 
H    -1.5029151    2.1558476    5.7301048 
H    -0.8901235    0.7890035    4.7906200 
