112
Energy =
C     0.3575145    1.4162140   -3.0007067 
C     0.9132969    2.4444540   -2.1725055 
C     2.1289191    2.2572549   -1.4820752 
H     0.3094270    3.3358899   -1.9601188 
Pd    0.5522167    0.6929506   -0.8936617 
P     0.8215269    0.7625562    1.4242478 
P    -0.6328204   -1.3226366   -0.9485513 
H     1.0667895    0.7714694   -3.5395131 
H     2.7711168    1.4263940   -1.8150292 
C    -3.5094315    1.8833420   -4.8580683 
C    -3.2841566    2.3868173   -3.5662989 
C    -2.0353368    2.2284776   -2.9552783 
C    -0.9760428    1.5734638   -3.6260509 
C    -1.2144273    1.0861745   -4.9308032 
C    -2.4679298    1.2343021   -5.5379392 
H    -4.4885531    2.0022100   -5.3330541 
H    -4.0884209    2.9020792   -3.0308496 
H    -1.8812752    2.6024156   -1.9365346 
H    -0.4015707    0.5990134   -5.4810682 
H    -2.6285438    0.8510239   -6.5510388 
C     4.2294301    5.1046680    0.9601350 
C     4.7061529    3.7914445    0.8156910 
C     4.0085007    2.8777498    0.0190234 
C     2.8064920    3.2467927   -0.6311987 
C     2.3351690    4.5700799   -0.4687435 
C     3.0467839    5.4898335    0.3084942 
H     4.7822633    5.8273696    1.5691546 
H     5.6300748    3.4819926    1.3149064 
H     4.3935622    1.8603300   -0.1016537 
H     1.4142628    4.8916762   -0.9640899 
H     2.6732574    6.5137695    0.4102960 
Fe   -0.1910450   -1.7535563    3.7510025 
C    -0.3445012   -0.3205535    2.3170943 
C    -0.8024154   -1.6110484    1.8240039 
C    -1.8894491   -2.0345738    2.6682788 
C    -2.0959380   -1.0379205    3.6797980 
C    -1.1423969    0.0125919    3.4791079 
C     0.9716155   -3.4341865    3.9583851 
C     1.7680847   -2.2525686    4.1033506 
C     1.2297270   -1.4852109    5.1926114 
C     0.1000471   -2.1971961    5.7193610 
C    -0.0630903   -3.3999061    4.9527313 
C     0.3413272    2.4433045    1.9808201 
C    -1.0302174    2.7861627    1.9095854 
C    -1.4579974    4.0700883    2.2631117 
C    -0.5261808    5.0313245    2.6904394 
C     0.8342128    4.7040659    2.7405938 
C     1.2737662    3.4221334    2.3746713 
C     2.5076898    0.4069754    2.0427025 
C     2.9542288    0.8080362    3.3180250 
C     4.2406502    0.4610316    3.7510373 
C     5.0821130   -0.3047147    2.9270089 
C     4.6366590   -0.7215817    1.6632296 
C     3.3565574   -0.3592137    1.2190301 
C    -0.2509204   -2.3252223    0.6194187 
H    -2.4408920   -2.9717002    2.5792675 
H    -2.8256764   -1.0913010    4.4897070 
H    -1.0376072    0.9148889    4.0830463 
H     1.1281007   -4.2224981    3.2200283 
H     2.6279141   -1.9825967    3.4893069 
H     1.6087742   -0.5297426    5.5562647 
H    -0.5400128   -1.8693259    6.5405245 
H    -0.8478687   -4.1462723    5.0895584 
H    -1.7635938    2.0388039    1.5911402 
H     2.3445115    3.1997483    2.3874028 
H     2.2947997    1.3837427    3.9748943 
H     3.0081774   -0.6661657    0.2247071 
H     0.8512358   -2.2422797    0.6684579 
C    -0.6165881   -3.8192098    0.5766303 
H    -0.3960616   -4.2642381    1.5611097 
H    -1.6823582   -3.9876984    0.3612468 
H    -0.0233005   -4.3600243   -0.1774363 
H    -2.5230546    4.3193982    2.2121694 
H     1.5708678    5.4504208    3.0540829 
H     4.5853248    0.7799835    4.7401002 
H     5.2886201   -1.3221092    1.0204105 
H    -0.8625074    6.0330494    2.9770559 
H     6.0837978   -0.5794882    3.2730196 
H    -0.5541181   -3.4815237   -2.0438460 
C     1.9236116   -3.6235550   -3.3722614 
C     1.4365966   -2.6476948   -2.2859819 
C    -0.1039239   -2.5036517   -2.3011769 
C    -0.6072007   -2.1001059   -3.6994798 
C    -0.1151560   -3.0849366   -4.7753215 
C     1.4163549   -3.2126746   -4.7636010 
H     1.5574101   -4.6413391   -3.1333665 
H     3.0272603   -3.6738203   -3.3580960 
H     1.8829871   -1.6463233   -2.4560639 
H     1.7881904   -2.9837395   -1.2928385 
H    -1.7093199   -2.0415696   -3.7189391 
H    -0.2358453   -1.0896371   -3.9328715 
H    -0.5689453   -4.0793545   -4.5956442 
H    -0.4698346   -2.7513429   -5.7670752 
H     1.8663960   -2.2387224   -5.0428958 
H     1.7480277   -3.9423943   -5.5232905 
H    -2.5120530   -0.6337320   -2.1703666 
C    -4.4615895    0.3774135   -0.5089495 
C    -2.9952168    0.0383521   -0.1888411 
C    -2.4665013   -1.0561576   -1.1445345 
C    -3.3543217   -2.3170003   -1.0913111 
C    -4.8158182   -1.9606807   -1.4232942 
C    -5.3521190   -0.8755645   -0.4750204 
H    -4.5116076    0.8335112   -1.5158581 
H    -4.8311633    1.1352701    0.2056978 
H    -2.9140732   -0.3076261    0.8573458 
H    -2.3610659    0.9388702   -0.2820635 
H    -2.9816273   -3.0933697   -1.7838045 
H    -3.3136144   -2.7413475   -0.0708746 
H    -4.8710670   -1.5987350   -2.4687683 
H    -5.4414728   -2.8695377   -1.3674096 
H    -5.3810912   -1.2767391    0.5575321 
H    -6.3914652   -0.6137603   -0.7419405 
