112
Energy =
C     1.8819928    0.1053760   -2.4532008 
C     1.7266377    1.4357805   -2.0326396 
C     2.2709671    1.9115984   -0.7971783 
H     1.0965831    2.1066597   -2.6290633 
Pd    0.7532448    0.3812664   -0.3350987 
P     0.8331916    0.7015709    1.9735361 
P    -1.2107005   -0.9683110   -0.2437717 
H     2.6422546   -0.4996527   -1.9370019 
H     3.1847617    1.4293596   -0.4232364 
C     0.6018666   -1.6240280   -6.1719224 
C     0.0673534   -0.3892429   -5.7647068 
C     0.4753664    0.1945942   -4.5622684 
C     1.4205992   -0.4507822   -3.7299676 
C     1.9606680   -1.6857020   -4.1621943 
C     1.5580815   -2.2656271   -5.3698975 
H     0.2802492   -2.0774560   -7.1149898 
H    -0.6693343    0.1219552   -6.3930693 
H     0.0491641    1.1584530   -4.2676110 
H     2.7006811   -2.1951109   -3.5341135 
H     1.9900781   -3.2204726   -5.6861528 
C     1.6384737    5.9218566    0.6531642 
C     0.7746466    5.3867114   -0.3177175 
C     0.9716218    4.0871192   -0.7962927 
C     2.0480222    3.2943307   -0.3259772 
C     2.9175211    3.8537105    0.6372158 
C     2.7095418    5.1493676    1.1262386 
H     1.4794336    6.9363125    1.0327015 
H    -0.0626052    5.9824449   -0.6964147 
H     0.2658552    3.6785411   -1.5274229 
H     3.7613743    3.2619516    1.0065764 
H     3.3919717    5.5576055    1.8788238 
Fe    1.3509628   -2.7056659    2.0976930 
C     0.5703224   -0.9252926    2.7210252 
C    -0.4888599   -1.8564938    2.3591317 
C    -0.3295468   -3.0128482    3.2038858 
C     0.8040086   -2.8164295    4.0574930 
C     1.3679254   -1.5344593    3.7613687 
C     2.7721441   -2.4853994    0.6206400 
C     3.3191539   -3.1516480    1.7665136 
C     2.5490273   -4.3442876    1.9852241 
C     1.5224481   -4.4047855    0.9814092 
C     1.6655317   -3.2541051    0.1368500 
C    -0.3467267    1.8283074    2.8116686 
C    -0.9749884    1.4636756    4.0196140 
C    -1.8436535    2.3633890    4.6543632 
C    -2.0799616    3.6295234    4.0965711 
C    -1.4392937    4.0011252    2.9038745 
C    -0.5761467    3.1047884    2.2615684 
C     2.4575258    1.2468754    2.6517953 
C     2.5575720    2.3074676    3.5736745 
C     3.8153272    2.7135048    4.0455940 
C     4.9804792    2.0700651    3.6057851 
C     4.8863278    1.0075109    2.6915957 
C     3.6334915    0.6023584    2.2159079 
C    -1.6922553   -1.6408546    1.4694077 
H    -0.9669013   -3.8995165    3.1768001 
H     1.1929331   -3.5333819    4.7827900 
H     2.2482063   -1.0875585    4.2257042 
H     3.1309454   -1.5578600    0.1723496 
H     4.1596893   -2.8097645    2.3729909 
H     2.7009578   -5.0657144    2.7901407 
H     0.7661076   -5.1860488    0.8857728 
H     1.0682431   -3.0051367   -0.7367861 
H    -0.7878020    0.4786504    4.4599777 
H    -0.0773057    3.3994214    1.3344157 
H     1.6588271    2.8255566    3.9189240 
H     3.5593327   -0.2244267    1.5072853 
H    -2.0751229   -2.6487252    1.2336969 
C    -2.8251050   -0.9080019    2.2186042 
H    -3.0683264   -1.4739845    3.1345993 
H    -2.5348489    0.1073844    2.5236336 
H    -3.7386515   -0.8460370    1.6042877 
H    -2.3343963    2.0747689    5.5896717 
H    -1.6092188    4.9915284    2.4689684 
H     3.8805067    3.5417410    4.7587775 
H     5.7907707    0.4964137    2.3453871 
H    -2.7594585    4.3283674    4.5953744 
H     5.9598612    2.3934136    3.9729945 
H    -1.0528385   -3.3120261   -0.5111715 
C    -0.9569706   -4.1040821   -3.1310172 
C    -0.7908028   -2.6911188   -2.5452974 
C    -1.5151622   -2.5714466   -1.1956256 
C    -3.0116765   -2.9371739   -1.3277882 
C    -3.1696234   -4.3529821   -1.9168093 
C    -2.4400445   -4.4857807   -3.2638724 
H    -0.4474836   -4.8319777   -2.4677837 
H    -0.4503636   -4.1570024   -4.1107567 
H    -1.1770077   -1.9464521   -3.2631996 
H     0.2769210   -2.4546001   -2.4176874 
H    -3.5249792   -2.8758497   -0.3502221 
H    -3.5119989   -2.2116919   -1.9957777 
H    -2.7568484   -5.0903195   -1.2001026 
H    -4.2430249   -4.5883557   -2.0307063 
H    -2.9218722   -3.8187417   -4.0059980 
H    -2.5399442   -5.5147862   -3.6526351 
H    -3.5374373   -0.2323745   -0.5822275 
C    -3.4490763    1.4943352   -2.8387115 
C    -2.4345358    0.4549776   -2.3301446 
C    -2.5545665    0.2245452   -0.8055469 
C    -2.4328660    1.5780369   -0.0698800 
C    -3.4561823    2.6085114   -0.5718983 
C    -3.3263324    2.8279439   -2.0863303 
H    -4.4730480    1.0928270   -2.7080165 
H    -3.3066328    1.6432008   -3.9247054 
H    -1.4054246    0.8041478   -2.5444486 
H    -2.5641716   -0.4884664   -2.8845981 
H    -2.5293367    1.4513847    1.0184140 
H    -1.4085029    1.9687152   -0.2440570 
H    -4.4796863    2.2569754   -0.3350986 
H    -3.3134421    3.5572951   -0.0235005 
H    -2.3373841    3.2805546   -2.3043961 
H    -4.0872763    3.5441864   -2.4437649 
