112
Energy =
C     1.6680168   -0.0508517   -2.7976715 
C     2.3401903    1.0935030   -2.2608505 
C     3.2429823    0.9464577   -1.1861805 
H     2.0708278    2.0994980   -2.6062380 
Pd    1.1212981    0.2348225   -0.6446944 
P     0.8914762    1.2937079    1.4138086 
P    -0.6590328   -1.2729909   -0.4056661 
H     2.2177322   -1.0012566   -2.7535938 
H     3.6278668   -0.0695355   -1.0048824 
C    -1.2879930    0.1701616   -5.9298740 
C    -1.0704156    1.2767372   -5.0918364 
C    -0.1225184    1.2101873   -4.0656226 
C     0.6488769    0.0411224   -3.8621603 
C     0.4252994   -1.0596215   -4.7214607 
C    -0.5358555   -0.9985288   -5.7384758 
H    -2.0352019    0.2219322   -6.7281472 
H    -1.6505367    2.1942597   -5.2350782 
H     0.0154404    2.0754976   -3.4079640 
H     1.0238347   -1.9678577   -4.5973474 
H    -0.6884348   -1.8629983   -6.3930354 
C     5.6260137    3.9629829    0.7320872 
C     5.9695525    2.6059062    0.8239256 
C     5.1687635    1.6378904    0.2068614 
C     4.0244197    2.0081633   -0.5386670 
C     3.7010779    3.3822282   -0.6374873 
C     4.4875448    4.3456043    0.0005749 
H     6.2441607    4.7220585    1.2224477 
H     6.8573828    2.2991267    1.3862244 
H     5.4291820    0.5777142    0.2975561 
H     2.8207977    3.7013657   -1.2015778 
H     4.2127593    5.4024568   -0.0752769 
Fe   -3.1028703   -1.1116795    2.3887083 
C    -1.3874324   -1.3655458    1.2753540 
C    -1.2126309   -0.3819438    2.3381179 
C    -1.4768479   -1.0392438    3.5945446 
C    -1.8437603   -2.3987563    3.3309707 
C    -1.8143415   -2.5988246    1.9145321 
C    -4.7308425   -0.4775481    1.2955423 
C    -4.9939693   -1.7441694    1.9128470 
C    -4.8441346   -1.5775542    3.3307753 
C    -4.4817967   -0.2097240    3.5830605 
C    -4.4051697    0.4696444    2.3208129 
C    -0.8345745    1.0660245    2.1657903 
H    -1.4443814   -0.5727502    4.5798582 
H    -2.1393091   -3.1384047    4.0770876 
H    -2.0533501   -3.5334782    1.4053921 
H    -4.7781743   -0.2698371    0.2284528 
H    -5.2622858   -2.6681195    1.3975578 
H    -4.9633015   -2.3568574    4.0856645 
H    -4.2819099    0.2270474    4.5634501 
H    -4.1532245    1.5208166    2.1667666 
H    -1.4515517    1.4835326    1.3476459 
C    -1.0395429    1.9012873    3.4378699 
H    -2.0668826    1.7510886    3.8116177 
H    -0.3343674    1.6025594    4.2320319 
H    -0.9003353    2.9746490    3.2360046 
H    -0.8253216   -3.6852240   -0.2775702 
C     1.7120860   -4.6696827    0.3384153 
C     1.1833239   -3.2262509    0.4042150 
C     0.0059448   -3.0190662   -0.5764619 
C     0.4170242   -3.3932545   -2.0115817 
C     0.9339877   -4.8430757   -2.0699599 
C     2.1031325   -5.0619313   -1.0958084 
H     0.9259357   -5.3579821    0.7067769 
H     2.5738088   -4.7813789    1.0208087 
H     1.9933577   -2.5170663    0.1348409 
H     0.8747910   -2.9758072    1.4347762 
H    -0.4248953   -3.2596788   -2.7130576 
H     1.2200936   -2.7110372   -2.3407546 
H     0.1063734   -5.5341454   -1.8158834 
H     1.2398866   -5.0849881   -3.1038037 
H     2.9656223   -4.4452924   -1.4193898 
H     2.4382526   -6.1137644   -1.1287973 
H    -1.4562164   -1.1533697   -2.6371794 
C    -3.6764144    0.5746718   -2.6453082 
C    -2.5863412    0.3519815   -1.5811194 
C    -1.9982129   -1.0723064   -1.6738122 
C    -3.0904545   -2.1575360   -1.6096831 
C    -4.1520135   -1.9220312   -2.7014861 
C    -4.7629425   -0.5139202   -2.6130872 
H    -3.1947606    0.5697584   -3.6404303 
H    -4.1271351    1.5751635   -2.5135344 
H    -2.9965508    0.5020113   -0.5646621 
H    -1.7734759    1.0911257   -1.7084256 
H    -2.6448797   -3.1609200   -1.7347385 
H    -3.5541004   -2.1360444   -0.6055533 
H    -3.6756398   -2.0496657   -3.6933557 
H    -4.9413505   -2.6914259   -2.6263942 
H    -5.3565025   -0.4283509   -1.6820157 
H    -5.4757676   -0.3570940   -3.4421337 
C     4.1112870    0.1526383    4.5589391 
C     2.9604911   -0.6347270    4.3932346 
C     1.9786454   -0.2636423    3.4665771 
C     2.1288986    0.9172837    2.7028993 
C     3.3001022    1.6897593    2.8557469 
C     4.2796095    1.3079846    3.7835946 
H     4.8772140   -0.1396330    5.2846594 
H     2.8272227   -1.5459681    4.9856301 
H     1.0964169   -0.8971133    3.3349102 
H     3.4594229    2.5842550    2.2479070 
H     5.1811142    1.9199038    3.8907571 
C     0.6494339    5.8556153    0.5128975 
C     1.1709563    5.4421933    1.7481315 
C     1.2718274    4.0778548    2.0552018 
C     0.8711730    3.1086278    1.1131023 
C     0.3273689    3.5343082   -0.1186616 
C     0.2144349    4.8982931   -0.4167280 
H     0.5731653    6.9225379    0.2791159 
H     1.4967431    6.1859761    2.4826454 
H     1.6619603    3.7736965    3.0307814 
H     0.0007948    2.7818426   -0.8486643 
H    -0.2074481    5.2139349   -1.3766758 
