142
Energy =
C     2.7700510    2.0437594   -0.1590466 
C     3.3165593    0.7407796    0.0023783 
C     3.0504031   -0.2799745   -0.9397543 
H     3.8634030    0.4957903    0.9205196 
Pd    1.1166549    0.5019007    0.0861156 
P     0.0350040   -1.5884154    0.1684960 
P    -0.5335397    2.0941235    0.5106013 
H     2.5056581    2.3455224   -1.1830148 
H     2.6781226    0.0442075   -1.9231946 
C     3.2780665    5.3589136    2.5370456 
C     3.5443661    4.0538843    2.9844812 
C     3.3904378    2.9658289    2.1201653 
C     2.9746396    3.1582702    0.7817470 
C     2.7451566    4.4814031    0.3378519 
C     2.8841142    5.5700603    1.2072649 
H     3.3874247    6.2071973    3.2204080 
H     3.8568999    3.8829200    4.0191938 
H     3.5720804    1.9562700    2.5021490 
H     2.4695992    4.6569169   -0.7062888 
H     2.6903091    6.5820785    0.8387997 
C     4.7549128   -4.2193017   -1.0065645 
C     3.9460902   -3.7713943   -2.0616451 
C     3.3810645   -2.4925458   -2.0155155 
C     3.6103798   -1.6365728   -0.9123351 
C     4.4173341   -2.1091543    0.1494619 
C     4.9830425   -3.3855289    0.1011717 
H     5.2042790   -5.2168714   -1.0423057 
H     3.7616038   -4.4157180   -2.9273306 
H     2.7573737   -2.1452036   -2.8450674 
H     4.6102251   -1.4763990    1.0203170 
H     5.5973724   -3.7374113    0.9359502 
Fe   -4.4834921    0.3600301   -1.5396101 
C    -2.6602254    0.7896243   -0.7573955 
C    -2.8853104   -0.6486175   -0.7275687 
C    -3.1496318   -1.0738446   -2.0803028 
H    -3.3563163   -2.1021162   -2.3787319 
C    -3.0491910    0.0613397   -2.9462969 
H    -3.2032939    0.0628923   -4.0267102 
C    -2.7637505    1.2107895   -2.1389655 
H    -2.6870970    2.2370918   -2.5006569 
C    -5.8244196    1.7401841   -0.8484168 
H    -5.5861100    2.6549438   -0.3016514 
C    -6.0936178    0.4561938   -0.2667415 
H    -6.1156375    0.2318193    0.8012405 
C    -6.3474688   -0.4714825   -1.3340988 
H    -6.5824314   -1.5323399   -1.2283479 
C    -6.2404569    0.2422845   -2.5739003 
H    -6.3604392   -0.1833027   -3.5718038 
C    -5.9185806    1.6088698   -2.2743298 
H    -5.7488591    2.4019648   -3.0051150 
C    -2.8116999   -1.5540876    0.4533170 
C    -1.5696911   -1.9494225    1.0266321 
C    -1.5675323   -2.7346765    2.1988101 
H    -0.6173448   -3.0358130    2.6477294 
C    -2.7657182   -3.1649011    2.7843073 
H    -2.7371698   -3.7710359    3.6955319 
C    -3.9863539   -2.8426919    2.1799237 
H    -4.9293691   -3.1993888    2.6067701 
C    -3.9980391   -2.0457208    1.0286465 
H    -4.9421168   -1.7675896    0.5571923 
C     1.2124011   -2.6509712    1.0948461 
C     1.5303551   -3.9666291    0.7251163 
H     1.1214792   -4.3939195   -0.1950628 
C     2.4100243   -4.7445705    1.4992753 
C     2.9711745   -4.1656148    2.6599614 
C     2.6832590   -2.8358597    3.0482674 
C     1.8016303   -2.0933815    2.2501187 
H     1.5709255   -1.0580556    2.5343030 
C    -0.2516662   -2.3207043   -1.4835739 
C    -0.8854019   -3.5723167   -1.6265828 
H    -1.1843003   -4.1417291   -0.7391615 
C    -1.1756285   -4.0898615   -2.8973382 
C    -0.8391254   -3.3119766   -4.0329845 
C    -0.1927279   -2.0602118   -3.9214657 
C     0.0848132   -1.5827014   -2.6297256 
H     0.5606833   -0.6020293   -2.5167813 
C    -0.3694548    2.9738436    2.1098042 
C    -1.0678222    4.1479205    2.4419782 
H    -1.7651202    4.6121164    1.7378432 
C    -0.8905918    4.7364212    3.7034106 
C    -0.0571164    4.1422339    4.6595664 
H     0.0762545    4.6110033    5.6379325 
C     0.5975702    2.9420802    4.3452928 
C     0.4518946    2.3685266    3.0779947 
H     0.9845691    1.4459562    2.8292852 
C    -0.3047151    3.3171105   -0.8499379 
C    -0.0888989    2.7418480   -2.1158667 
H    -0.0892179    1.6515862   -2.2210926 
C     0.1406048    3.5423431   -3.2405295 
C     0.1833736    4.9377416   -3.1210230 
H     0.3780273    5.5662890   -3.9936220 
C    -0.0083577    5.5123984   -1.8558281 
C    -0.2575968    4.7163236   -0.7257854 
H    -0.3718317    5.2078494    0.2423584 
C    -2.3965083    1.7126827    0.4049707 
H    -2.8484755    2.6913569    0.1601658 
C    -2.9294398    1.2380370    1.7686242 
H    -3.9526399    0.8537103    1.6318619 
H    -2.3200406    0.4264437    2.1974135 
H    -2.9566528    2.0688958    2.4908026 
C     0.3523231    2.8406937   -4.5614361 
F     0.6777203    3.6827400   -5.5558062 
F     1.3488947    1.9137922   -4.4533809 
F    -0.7642921    2.1600388   -4.9372090 
C     0.1725582    7.0045591   -1.6748461 
F    -0.5621236    7.4761852   -0.6432554 
F     1.4764024    7.2912737   -1.4011700 
F    -0.1640842    7.6924832   -2.7837927 
C    -1.5931375    6.0487651    3.9836844 
F    -1.4897877    6.4180471    5.2753454 
F    -1.0665983    7.0401820    3.2229240 
F    -2.9097102    5.9678291    3.6722534 
C     1.4623392    2.2645675    5.3860032 
F     2.3155950    1.3656664    4.8180074 
F     2.2138863    3.1602224    6.0657507 
F     0.7194245    1.5899928    6.2897235 
C     2.7852229   -6.1443324    1.0753069 
H     2.1370707   -6.8988536    1.5594842 
H     2.6773408   -6.2646863   -0.0147211 
H     3.8264581   -6.3690870    1.3591180 
C     3.3610325   -2.2392848    4.2586343 
H     4.4589698   -2.2638569    4.1391165 
H     3.0422172   -1.1975725    4.4232218 
H     3.1339092   -2.8157637    5.1725974 
C    -1.8355830   -5.4358249   -3.0808871 
H    -1.9294246   -5.9669970   -2.1201961 
H    -2.8473565   -5.3307791   -3.5132843 
H    -1.2566053   -6.0601696   -3.7826273 
C     0.1825412   -1.2644906   -5.1492022 
H     0.3482044   -1.9337131   -6.0085801 
H    -0.6140200   -0.5478939   -5.4218031 
H     1.0938024   -0.6707437   -4.9736352 
O     3.9217265   -4.8515081    3.3844927 
O    -1.1137476   -3.8378085   -5.2758270 
C     3.4337674   -5.8048909    4.3400118 
H     4.3203206   -6.2213611    4.8407461 
H     2.7811165   -5.3176744    5.0891622 
H     2.8717315   -6.6219855    3.8506682 
C    -2.3092614   -3.3548087   -5.9037588 
H    -2.3930906   -3.8866073   -6.8630212 
H    -3.2001252   -3.5714319   -5.2828691 
H    -2.2590607   -2.2654305   -6.0912870 
