116
Energy =
C    -3.4443142    0.2992804   -0.2265448 
C    -2.8466482    0.8809235   -1.3995010 
C    -2.3798459    0.0775965   -2.4448420 
H    -2.7824928    1.9735639   -1.4852215 
Pd   -1.2617749   -0.1208825   -0.1589052 
P     1.0550551    0.3008411   -0.5223333 
P    -0.9816903   -1.3803259    1.8506979 
H    -3.9298612   -0.6698226   -0.3823453 
H    -2.5266507   -1.0075430   -2.3378852 
C    -5.4059013    2.7553020    2.7215101 
C    -5.9439438    1.5117750    2.3554383 
C    -5.2992642    0.7202535    1.3971922 
C    -4.1013233    1.1540047    0.7828489 
C    -3.5821907    2.4176647    1.1502354 
C    -4.2238431    3.2061343    2.1111025 
H    -5.9075799    3.3731695    3.4731532 
H    -6.8716611    1.1580783    2.8170770 
H    -5.7269377   -0.2480604    1.1140933 
H    -2.6537601    2.7755293    0.6912525 
H    -3.7996520    4.1769683    2.3882091 
C    -1.2367628    1.2350699   -6.4148234 
C    -1.6311708    2.2221146   -5.4944506 
C    -2.0077503    1.8660774   -4.1975376 
C    -1.9827907    0.5104057   -3.7825331 
C    -1.6152323   -0.4728515   -4.7348210 
C    -1.2419886   -0.1160945   -6.0336280 
H    -0.9448827    1.5184938   -7.4311852 
H    -1.6558382    3.2740722   -5.7966104 
H    -2.3348300    2.6476051   -3.5049711 
H    -1.6168842   -1.5277801   -4.4400652 
H    -0.9575907   -0.8915244   -6.7520887 
Fe    3.7878708   -0.7889871    1.6039389 
C     2.0630828    0.1446413    0.9912381 
C     1.7929880   -0.8314408    2.0319246 
C     2.5722781   -0.4643042    3.1879356 
C     3.3179331    0.7207516    2.8760571 
C     3.0235392    1.0895062    1.5231451 
C     4.4421067   -2.6989465    1.2154452 
C     4.7357848   -1.8423572    0.1058875 
C     5.5583206   -0.7638550    0.5731184 
C     5.7804036   -0.9598829    1.9776610 
C     5.0885667   -2.1545071    2.3757042 
C     0.8420907   -1.9938339    1.9027129 
H     2.6256654   -1.0105574    4.1305725 
H     4.0211859    1.2270496    3.5396470 
H     3.4479782    1.9430035    0.9925122 
H     3.8461064   -3.6124188    1.1748431 
H     4.4101576   -2.0007885   -0.9207535 
H     5.9519266    0.0560694   -0.0302311 
H     6.3563556   -0.3052223    2.6342191 
H     5.0509153   -2.5652299    3.3864570 
H     0.9476440   -2.3804462    0.8722670 
C     1.2172338   -3.1305601    2.8749956 
H     2.3071910   -3.2797860    2.8092077 
H     0.9758313   -2.8994148    3.9213291 
H     0.7315079   -4.0802894    2.6105710 
C    -2.0018096   -3.0152590    1.7621938 
C    -1.3193878   -0.3980945    3.4640865 
C    -3.4454608   -2.7186869    1.2992717 
H    -4.0377303   -3.6482321    1.3818724 
H    -3.9448079   -1.9442979    1.8998069 
H    -3.4600415   -2.4089012    0.2435722 
C    -2.8381954   -0.3106075    3.7120334 
H    -3.0171468    0.4018834    4.5375168 
H    -3.3774679    0.0675547    2.8329439 
H    -3.2723992   -1.2781016    4.0117090 
C    -1.3481459   -3.8847082    0.6592395 
H    -2.0184274   -4.7330232    0.4304581 
H    -1.2100737   -3.3027696   -0.2718046 
H    -0.3752723   -4.3068683    0.9556405 
C    -2.0738632   -3.7831199    3.1019330 
H    -2.5747248   -4.7521341    2.9210077 
H    -1.0900155   -3.9965238    3.5406735 
H    -2.6750205   -3.2391875    3.8478538 
C    -0.6377381   -0.9796567    4.7191822 
H    -0.9267042   -0.3562063    5.5853965 
H    -0.9545943   -2.0116663    4.9362116 
H     0.4586921   -0.9453480    4.6454449 
C    -0.7825674    1.0300190    3.2050135 
H    -1.3020906    1.4956834    2.3520538 
H    -0.9735665    1.6497683    4.1004849 
H     0.3011193    1.0397723    3.0079669 
H     2.2971069    2.3700489   -0.9048320 
C     0.5745944    4.4626346   -0.0567810 
C     0.5275319    2.9521227    0.2268818 
C     1.2152468    2.1355022   -0.8912725 
C     0.5997084    2.4859892   -2.2577315 
C     0.6410427    3.9968089   -2.5407366 
C    -0.0458224    4.7953450   -1.4226500 
H     1.6281710    4.8046121   -0.0385042 
H     0.0533034    5.0060387    0.7519949 
H    -0.5298365    2.6222665    0.2884981 
H     0.9788534    2.7291537    1.2081208 
H     1.0968564    1.9372389   -3.0750942 
H    -0.4485262    2.1434097   -2.2485271 
H     1.6954810    4.3231011   -2.6324733 
H     0.1635113    4.1982763   -3.5168929 
H    -1.1256453    4.5409326   -1.4027473 
H     0.0186610    5.8793146   -1.6241136 
H     2.3184415   -1.5426886   -1.2857114 
C     4.0142674   -0.7316687   -3.3992265 
C     3.2638816    0.0974864   -2.3379914 
C     2.0006497   -0.6374230   -1.8404262 
C     1.0903208   -1.0689555   -3.0025831 
C     1.8599518   -1.8950700   -4.0460933 
C     3.0893571   -1.1289492   -4.5611845 
H     4.4231865   -1.6514138   -2.9368868 
H     4.8824077   -0.1572347   -3.7691687 
H     2.9727477    1.0602967   -2.7959808 
H     3.9188572    0.3330491   -1.4805036 
H     0.2288878   -1.6374707   -2.6052015 
H     0.6724819   -0.1726746   -3.4930728 
H     2.1857465   -2.8513589   -3.5907127 
H     1.1866167   -2.1545433   -4.8832386 
H     2.7525019   -0.2159380   -5.0915119 
H     3.6422358   -1.7377597   -5.2983310 
