124
Energy =
C    -0.0153325   -2.4483082   -1.6632335 
C     1.0846079   -1.6994118   -2.1943198 
C     2.2670246   -1.4938837   -1.4621816 
H     0.9678301   -1.1958032   -3.1622813 
Pd    0.3187637   -0.6300304   -0.3994046 
P     1.1489269    1.3533522    0.5795411 
P    -1.5188973   -0.8304964    1.0319535 
H     0.2358728   -3.2578357   -0.9647927 
H     2.4031726   -2.0726624   -0.5362919 
C    -3.6171703   -3.1938179   -3.8972701 
C    -2.8928258   -2.0112127   -4.1212166 
C    -1.7293873   -1.7488559   -3.3902352 
C    -1.2648899   -2.6622009   -2.4136066 
C    -2.0162463   -3.8375273   -2.1875632 
C    -3.1732838   -4.1050304   -2.9280278 
H    -4.5284839   -3.3987259   -4.4669699 
H    -3.2364654   -1.2903340   -4.8706198 
H    -1.1723820   -0.8246284   -3.5804675 
H    -1.6791227   -4.5515221   -1.4286407 
H    -3.7390786   -5.0223891   -2.7399421 
C     5.8779904    0.3450752   -2.8991339 
C     5.7056957    0.0811210   -1.5311192 
C     4.5318017   -0.5262090   -1.0742596 
C     3.4876945   -0.8526668   -1.9730130 
C     3.6802065   -0.5910325   -3.3515510 
C     4.8661228   -0.0070349   -3.8075101 
H     6.8028027    0.8072636   -3.2596790 
H     6.4925105    0.3406529   -0.8154413 
H     4.4101322   -0.7381717   -0.0085711 
H     2.9091070   -0.8708504   -4.0763347 
H     5.0042331    0.1734656   -4.8784664 
Fe   -2.6766006    2.2514539   -0.0140261 
C    -2.2164283    0.8143903    1.3433504 
C    -1.4194433    2.0108377    1.5970411 
C    -2.3491811    3.0879837    1.8193936 
C    -3.6854081    2.5828369    1.7263601 
C    -3.6130532    1.1830733    1.4385286 
C    -2.6831802    1.4965530   -1.9291058 
C    -3.9451018    2.1006439   -1.6095135 
C    -3.7023263    3.4756622   -1.2759243 
C    -2.2911530    3.7158496   -1.3858582 
C    -1.6629768    2.4913651   -1.7939914 
C     0.0594781    2.1318036    1.9026203 
H    -2.0676864    4.1229858    2.0257326 
H    -4.6020175    3.1674556    1.8238300 
H    -4.4591116    0.5088661    1.2993747 
H    -2.5175887    0.4581400   -2.2177910 
H    -4.9166946    1.6025408   -1.5964113 
H    -4.4555122    4.2034617   -0.9686697 
H    -1.7881801    4.6626595   -1.1894499 
H    -0.6010354    2.3415312   -1.9809417 
H     0.3028734    3.2064376    1.8906448 
C     0.4120580    1.6217049    3.3193420 
H    -0.3348834    2.0025006    4.0364969 
H     0.4129548    0.5238192    3.3824241 
H     1.4093516    1.9812142    3.6199079 
C     5.0303454    0.0258188    2.8384989 
C     3.9006273   -0.7988779    2.6749712 
C     2.7874038   -0.3264710    1.9781069 
C     2.7365642    0.9796233    1.4416447 
C     3.8453977    1.8472955    1.6365776 
C     4.9679431    1.3310639    2.3164711 
H     3.8887127   -1.8159946    3.0816600 
H     1.9301629   -0.9932899    1.8365707 
H     5.8309497    1.9933853    2.4570706 
C     1.9169381    4.6934687   -2.5533860 
C     1.1581347    5.0172214   -1.4117928 
C     0.9262098    4.0151152   -0.4572809 
C     1.4384014    2.7130284   -0.6292202 
C     2.1806245    2.4145524   -1.7863315 
C     2.4357023    3.4041133   -2.7584433 
H     2.1030948    5.4679942   -3.3071922 
H     0.3180790    4.2680179    0.4147673 
H     2.5782328    1.4058245   -1.9293969 
C     6.2733762   -0.4794471    3.5331707 
H     6.0204910   -1.1651452    4.3595225 
H     6.9105773   -1.0419214    2.8244547 
H     6.8785192    0.3486238    3.9374741 
C     3.8910339    3.2852637    1.1690269 
H     2.9778807    3.8361346    1.4483892 
H     4.7542551    3.8051232    1.6145708 
H     3.9798796    3.3523993    0.0704976 
C     0.5947614    6.4097336   -1.2329837 
H    -0.1185892    6.6531375   -2.0416460 
H     0.0689162    6.5146073   -0.2694035 
H     1.3952363    7.1699545   -1.2691896 
C     3.2558858    3.0862543   -3.9879898 
H     3.2516800    3.9253546   -4.7021083 
H     4.3035661    2.8706998   -3.7131421 
H     2.8716339    2.1884941   -4.5019036 
C    -0.5024447   -2.1156759    5.4274968 
C    -1.5231425   -1.2233286    5.1485930 
C    -1.8252612   -0.8831271    3.8068901 
C    -1.1251242   -1.4468808    2.7409846 
H    -0.2455800   -2.3605374    6.4637811 
H    -2.0912659   -0.7586579    5.9606137 
H    -2.6027400   -0.1379169    3.6131125 
C    -0.1108024   -2.4331959    3.0014609 
C     0.2217251   -2.7427364    4.3729667 
C     1.2587388   -3.6861326    4.6412742 
C     1.9303878   -4.3256632    3.6127554 
C     1.5771576   -4.0553632    2.2640815 
C     0.5808154   -3.1375184    1.9734341 
H     1.5077938   -3.9052893    5.6852882 
H     2.7195687   -5.0509100    3.8356059 
H     2.0901269   -4.5795896    1.4505451 
H     0.3092238   -2.9345190    0.9345881 
C    -3.8306451   -1.4669158   -0.4269905 
C    -2.9225201   -1.8993335    0.5351803 
C    -3.0646405   -3.2050452    1.0981863 
C    -4.1103884   -4.0233961    0.7075995 
H    -3.7251452   -0.4731163   -0.8622419 
H    -2.3548638   -3.5575802    1.8523685 
H    -4.2145817   -5.0203637    1.1497838 
C    -5.0666736   -3.5947147   -0.2586591 
C    -4.9213933   -2.2816650   -0.8340890 
C    -5.8638936   -1.8432163   -1.8105470 
C    -6.9051598   -2.6668413   -2.2049892 
C    -7.0461700   -3.9645048   -1.6409588 
C    -6.1478226   -4.4181687   -0.6875238 
H    -5.7425631   -0.8489057   -2.2540178 
H    -7.6233601   -2.3231914   -2.9566695 
H    -7.8731111   -4.6060053   -1.9628268 
H    -6.2589560   -5.4172084   -0.2518266 
