124
Energy =
C    -0.3539691   -2.0535008   -2.2823678 
C     0.1481756   -0.9760060   -3.0517460 
C     1.4500445   -0.4598169   -2.8177393 
H    -0.5159705   -0.4610862   -3.7562847 
Pd    0.1616847   -0.2528242   -0.9612805 
P     1.3021348    1.3957404    0.2414491 
P    -1.3453073   -0.4820546    0.8180515 
H     0.3929645   -2.6749204   -1.7657496 
H     2.1640439   -1.1417211   -2.3374141 
C    -4.0657176   -4.1400564   -2.8610648 
C    -3.1448291   -4.5646932   -1.8911659 
C    -1.9554801   -3.8563679   -1.6972996 
C    -1.6569152   -2.7080011   -2.4685337 
C    -2.6027390   -2.2848079   -3.4325500 
C    -3.7906509   -2.9967319   -3.6281462 
H    -4.9964604   -4.6957937   -3.0132666 
H    -3.3611960   -5.4442298   -1.2768361 
H    -1.2393196   -4.1937869   -0.9397235 
H    -2.3988472   -1.4113198   -4.0601933 
H    -4.5029080   -2.6625086   -4.3897932 
C     3.4006743    2.5814242   -5.1480002 
C     4.1335329    1.7607186   -4.2792235 
C     3.4781848    0.7937861   -3.5088414 
C     2.0758289    0.6294659   -3.5827069 
C     1.3466693    1.4888795   -4.4389822 
C     2.0041057    2.4455879   -5.2185442 
H     3.9119773    3.3272178   -5.7649833 
H     5.2206017    1.8667676   -4.2079514 
H     4.0608480    0.1393055   -2.8519733 
H     0.2578675    1.3986711   -4.5134471 
H     1.4248445    3.0880663   -5.8899758 
Fe   -2.7644628    2.3943222   -0.3968850 
C    -2.0457578    1.1761254    1.0614400 
C    -1.3169567    2.4412317    1.0183820 
C    -2.2875131    3.4837876    1.2471983 
C    -3.5818271    2.8954260    1.4119782 
C    -3.4417134    1.4783876    1.3010907 
C    -2.4815954    3.7280610   -1.9071172 
C    -1.8121364    2.4937782   -2.2043841 
C    -2.7962191    1.4500030   -2.2250658 
C    -4.0746555    2.0334607   -1.9353569 
C    -3.8809553    3.4423501   -1.7389747 
C     0.1393266    2.7897795    0.7510072 
H    -2.0714785    4.5534111    1.2579965 
H    -4.5162738    3.4364013    1.5700478 
H    -4.2420451    0.7419646    1.3807755 
H    -2.0124179    4.7090207   -1.8077538 
H    -0.7431222    2.3551199   -2.3782605 
H    -2.5952085    0.3945560   -2.4155615 
H    -5.0250530    1.5015579   -1.8624493 
H    -4.6572924    4.1677228   -1.4890818 
H     0.1263441    3.3058983   -0.2237914 
C     0.7210479    3.8160759    1.7557600 
H     0.3084120    4.8154887    1.5383398 
H     0.4595718    3.5719202    2.7965179 
H     1.8182878    3.8833516    1.6689984 
C     3.3748215   -0.5447917    3.9684763 
C     2.3933654    0.4510049    4.1221467 
C     1.7807710    1.0259630    3.0072599 
C     2.1315511    0.6417667    1.6969783 
C     3.1052271   -0.3805542    1.5189195 
C     3.7043809   -0.9405861    2.6618398 
H     2.0900700    0.7711614    5.1242640 
H     0.9992221    1.7679641    3.1683967 
H     4.4497745   -1.7319649    2.5209323 
C     4.4277729    4.2301392   -1.6962268 
C     3.0972417    4.2322726   -2.1604401 
C     2.1995559    3.3059133   -1.6086046 
C     2.5936075    2.4430474   -0.5639004 
C     3.9228956    2.4758291   -0.1090085 
C     4.8614383    3.3552523   -0.6865122 
H     5.1430837    4.9391605   -2.1304057 
H     1.1748366    3.2767549   -1.9944023 
H     4.2359687    1.8326865    0.7201386 
C     4.0372147   -1.1714773    5.1716393 
H     4.7605569   -0.4721264    5.6309276 
H     3.2903357   -1.4202142    5.9461881 
H     4.5791859   -2.0925806    4.9030528 
C     3.4909309   -0.9245682    0.1622131 
H     4.4642596   -1.4393426    0.2073156 
H     2.7390301   -1.6615892   -0.1758289 
H     3.5554885   -0.1361749   -0.6047491 
C     2.6408232    5.2406550   -3.1903446 
H     1.6887025    4.9399311   -3.6564820 
H     2.4927933    6.2301776   -2.7181357 
H     3.3900322    5.3683608   -3.9894907 
C     6.3013315    3.3456806   -0.2226254 
H     6.8067596    4.2988125   -0.4490555 
H     6.3736026    3.1625382    0.8630824 
H     6.8665535    2.5404131   -0.7293088 
C     0.0949309   -1.7489935    5.0798164 
C    -0.7960776   -0.7033646    4.9087512 
C    -1.1921656   -0.3102005    3.6061843 
C    -0.7009597   -0.9647246    2.4791907 
H     0.4038482   -2.0560689    6.0850602 
H    -1.2018622   -0.1736653    5.7765696 
H    -1.8976898    0.5187146    3.4894950 
C     0.2184048   -2.0597876    2.6265577 
C     0.6239834   -2.4481101    3.9564846 
C     1.5379562   -3.5314423    4.1135711 
C     2.0270057   -4.2193285    3.0155235 
C     1.6090715   -3.8561827    1.7084316 
C     0.7259032   -2.8052675    1.5234619 
H     1.8466300   -3.8140147    5.1258407 
H     2.7271043   -5.0497902    3.1524346 
H     1.9885195   -4.4098889    0.8430022 
H     0.4074334   -2.5261218    0.5130061 
C    -2.9103006   -2.7477980    1.4264823 
C    -2.8003231   -1.5946580    0.6535968 
C    -3.8258240   -1.2882298   -0.2922438 
C    -4.9397295   -2.0961501   -0.4105927 
H    -2.1385510   -3.0116342    2.1552638 
H    -3.7368117   -0.3835783   -0.8917892 
H    -5.7233894   -1.8396859   -1.1313682 
C    -5.0807649   -3.2796541    0.3713519 
C    -4.0321634   -3.6157867    1.2994521 
C    -4.1409818   -4.8159105    2.0626562 
C    -5.2361817   -5.6508298    1.9108732 
C    -6.2724074   -5.3163693    0.9964324 
C    -6.1980806   -4.1535965    0.2455899 
H    -3.3420560   -5.0687972    2.7687342 
H    -5.3097153   -6.5721173    2.4979075 
H    -7.1335442   -5.9841616    0.8889319 
H    -6.9945763   -3.8969256   -0.4614762 
