110
Energy =
C     0.4465561   -0.1803894   -3.0663085 
C    -0.9765428   -0.0750454   -2.9638745 
C    -1.5988828    1.0738769   -2.4435854 
H    -1.5869037   -0.9522151   -3.2131713 
Pd   -0.1274752    0.0330441   -0.9179463 
P    -1.4434576    0.1890284    1.0498367 
P     2.0382712   -0.2108613   -0.0045371 
H     1.0053390    0.7503397   -3.2403349 
H    -0.9787924    1.9770833   -2.3388435 
C     2.2519804   -3.7221651   -4.7259659 
C     1.1153411   -3.8333669   -3.9070851 
C     0.5387346   -2.6908092   -3.3429179 
C     1.0773227   -1.4074887   -3.5969173 
C     2.2278432   -1.3123631   -4.4129864 
C     2.8092802   -2.4585437   -4.9714409 
H     2.7046616   -4.6177757   -5.1630871 
H     0.6857975   -4.8185430   -3.6979768 
H    -0.3262045   -2.7923808   -2.6787677 
H     2.6550773   -0.3261171   -4.6281437 
H     3.6954986   -2.3631166   -5.6071537 
C    -5.8135484    1.8905191   -2.1867205 
C    -4.8685811    2.8581296   -1.8130979 
C    -3.5012371    2.5756940   -1.9134232 
C    -3.0457827    1.3155034   -2.3712478 
C    -4.0135712    0.3621528   -2.7718689 
C    -5.3790704    0.6472003   -2.6780330 
H    -6.8837628    2.1080085   -2.1124460 
H    -5.1966300    3.8382727   -1.4523546 
H    -2.7679856    3.3436349   -1.6438927 
H    -3.7008946   -0.6059617   -3.1742002 
H    -6.1111645   -0.1026929   -2.9944469 
Fe    0.9885656   -1.3029513    3.0272540 
C     2.1729476   -1.3615841    1.3973622 
C     1.4194782   -2.5902192    1.5229125 
H     0.7226390   -2.9830868    0.7834973 
C     1.7465326   -3.1929728    2.7793723 
H     1.3199621   -4.1157326    3.1761291 
C     2.6975257   -2.3514522    3.4440134 
H     3.1188628   -2.5179355    4.4370970 
C     2.9635984   -1.2215358    2.6035647 
C    -0.7034181   -0.2309088    2.6677380 
C     0.2954912    0.5603100    3.3583941 
H     0.7322819    1.4931874    3.0034977 
C     0.5924057   -0.0749067    4.6087399 
H     1.3178449    0.2749163    5.3452592 
C    -0.1937176   -1.2688413    4.6991444 
H    -0.1690546   -1.9950159    5.5135660 
C    -0.9865431   -1.3741640    3.5101230 
H     3.6382749   -0.3983259    2.8444714 
H    -1.6673064   -2.1941599    3.2782295 
C    -3.0168720   -0.8844092    0.9683155 
C    -4.1835602    0.1355269    0.9856261 
C    -3.7719004    1.3364547    1.8405381 
C    -2.3938483    1.7948349    1.3279727 
H    -3.0355829   -1.4422839    1.9218719 
H    -4.3969558    0.4689285   -0.0451615 
H    -5.1000266   -0.3418055    1.3718706 
H    -4.5088198    2.1568609    1.7699242 
H    -3.7078421    1.0400915    2.9032902 
H    -2.5368602    2.1253917    0.2835927 
C     2.6464059    1.4322148    0.7148879 
C     4.1202114    1.5320874    0.2566252 
C     4.2600420    0.9005827   -1.1406503 
C     3.5065974   -0.4577204   -1.1894059 
H     2.5947069    1.2872197    1.8067877 
H     4.4682447    2.5808663    0.2621086 
H     4.7577361    0.9837764    0.9719909 
H     3.8395926    1.5800371   -1.9006797 
H     5.3218253    0.7549186   -1.4080171 
H     3.0190516   -0.5645635   -2.1701562 
C     4.4370567   -1.7029695   -1.0707251 
H     5.0730560   -1.6075849   -1.9751286 
C     1.7378638    2.6530617    0.3940732 
H     0.7002733    2.3095618    0.5795829 
C    -3.0648213   -1.9008642   -0.1951150 
C    -1.6981679    2.9532458    2.0996324 
H    -0.6069850    2.8341654    1.9809426 
H    -2.9236972   -1.3267701   -1.1299458 
C     5.3891836   -1.7230381    0.1361582 
H     6.0892378   -2.5710548    0.0395989 
H     5.9983346   -0.8050149    0.2033126 
H     4.8451346   -1.8524510    1.0854458 
C     3.6747242   -3.0296913   -1.2104123 
H     4.3833816   -3.8618802   -1.3646482 
H     3.0904098   -3.2586564   -0.3041241 
H     2.9863304   -3.0083914   -2.0705860 
C     1.7879213    3.1398328   -1.0624297 
H     2.7698764    3.5767155   -1.3154964 
H     1.5828207    2.3175568   -1.7704374 
H     1.0261968    3.9220927   -1.2271663 
C     2.0266345    3.8113684    1.3658885 
H     1.3311984    4.6502012    1.1896120 
H     1.9151710    3.4944310    2.4187083 
H     3.0542748    4.1969889    1.2401062 
C    -2.0067523    2.9655374    3.6069577 
H    -1.3811463    3.7207192    4.1137034 
H    -3.0623723    3.2294600    3.7945978 
H    -1.8089069    1.9900865    4.0813203 
C    -2.0640212    4.3042897    1.4553268 
H    -1.7119182    4.3550210    0.4090524 
H    -3.1577853    4.4633062    1.4555286 
H    -1.6025778    5.1417274    2.0072797 
C    -4.4361615   -2.5962393   -0.2722799 
H    -4.4410617   -3.3454221   -1.0832204 
H    -4.6683387   -3.1222179    0.6722153 
H    -5.2493950   -1.8792756   -0.4749692 
C    -1.9301553   -2.9298451   -0.1031456 
H    -1.9859265   -3.6580928   -0.9309203 
H    -0.9487184   -2.4222321   -0.1639272 
H    -1.9699040   -3.4939611    0.8468752 
