124
Energy =
C     1.1876902    1.1700107   -2.8805251 
C     2.0927466    0.1389684   -2.4995894 
C     1.7125860   -1.2251721   -2.4905148 
H     3.0495423    0.4219806   -2.0453594 
Pd    0.3667546    0.0342266   -1.1372237 
P    -0.0257225   -1.5209224    0.5430116 
P    -0.9888490    1.7059454   -0.2521658 
H     0.3733796    0.8991991   -3.5690915 
H     0.8864683   -1.5245832   -3.1534702 
C     2.1427524    5.3654189   -2.9212245 
C     2.9571380    4.4744846   -2.2019899 
C     2.6404141    3.1142517   -2.1456615 
C     1.5164493    2.6072988   -2.8419919 
C     0.6981517    3.5173310   -3.5498824 
C     1.0033537    4.8832384   -3.5827382 
H     2.3951241    6.4300190   -2.9617369 
H     3.8406997    4.8449538   -1.6728517 
H     3.2736796    2.4477932   -1.5512131 
H    -0.1842256    3.1456102   -4.0808433 
H     0.3561013    5.5692230   -4.1388461 
C     4.1531813   -4.5105635   -1.1544300 
C     2.9270918   -4.7413801   -1.7952783 
C     2.1483319   -3.6627762   -2.2309600 
C     2.5667606   -2.3286367   -2.0158365 
C     3.8038169   -2.1112848   -1.3637115 
C     4.5902720   -3.1911267   -0.9514227 
H     4.7651194   -5.3493133   -0.8094747 
H     2.5815204   -5.7655639   -1.9699186 
H     1.2095990   -3.8542209   -2.7595044 
H     4.1582694   -1.0945498   -1.1689445 
H     5.5461499   -3.0061346   -0.4523563 
Fe   -2.8531128   -1.4991808    2.6816916 
C    -1.0458679   -0.9752777    1.9405277 
C    -1.9711455    0.1558781    1.9413273 
C    -2.3678158    0.3654795    3.3133885 
C    -1.7287849   -0.6151226    4.1404861 
C    -0.9181900   -1.4460723    3.3051767 
C    -4.6108758   -1.6834906    1.6549345 
C    -3.7829717   -2.8328412    1.4311174 
C    -3.5071728   -3.4404204    2.7031683 
C    -4.1689358   -2.6647266    3.7136781 
C    -4.8514627   -1.5793764    3.0666206 
C     1.6452198   -1.7397747    1.2987151 
C     2.3739216   -0.5463134    1.4666477 
C     3.7014208   -0.5845598    1.9118964 
C     4.3045488   -1.8030808    2.2473790 
C     3.5699357   -2.9884741    2.0984195 
C     2.2578813   -2.9670891    1.6043153 
C    -0.6215851   -3.1882903    0.0705918 
C    -0.6712697   -4.2660889    0.9731151 
C    -1.1071891   -5.5251918    0.5384919 
C    -1.5441350   -5.7156562   -0.7814696 
C    -1.5368557   -4.6292086   -1.6652844 
C    -1.0679792   -3.3753579   -1.2462545 
C    -2.4255313    0.9828790    0.7590283 
H    -3.0642863    1.1262235    3.6659072 
H    -1.8635974   -0.7280949    5.2174827 
H    -0.2847743   -2.2702092    3.6385441 
H    -4.9844772   -1.0017666    0.8879282 
H    -3.4211835   -3.1803083    0.4621381 
H    -2.9165596   -4.3401804    2.8716977 
H    -4.1441390   -2.8561348    4.7879108 
H    -5.4318666   -0.7998356    3.5637105 
H     1.9196113    0.4199495    1.2153765 
H     1.7527335   -3.9190633    1.4307094 
H    -0.3714850   -4.1373922    2.0165287 
H    -1.0507107   -2.5351907   -1.9482143 
H    -2.8642109    0.3038722    0.0035168 
C    -3.4642061    2.0464137    1.1449814 
H    -4.3123161    1.5643369    1.6615906 
H    -3.0278993    2.8018024    1.8207104 
H    -3.8544855    2.5603712    0.2529874 
C     4.4957831    0.7013788    1.8890940 
F     4.7305441    1.0804283    0.5944168 
F     3.8245037    1.7246945    2.4692969 
F     5.6900587    0.5856508    2.4967204 
C     4.2231655   -4.3065143    2.4615154 
F     3.5375776   -5.3628281    1.9665054 
F     5.4890918   -4.3755481    1.9787036 
F     4.2991496   -4.4597283    3.8025334 
C    -1.0913870   -6.6745710    1.5259499 
F    -2.0654788   -6.5309018    2.4647613 
F    -1.2779209   -7.8640164    0.9254223 
F     0.0889381   -6.7140641    2.1897165 
C    -1.9759971   -4.7835330   -3.1049320 
F    -2.8447507   -3.8029322   -3.4533283 
F    -0.9091221   -4.6751092   -3.9450834 
F    -2.5634152   -5.9698452   -3.3401348 
H     5.3428203   -1.8311080    2.5879304 
H    -1.8855080   -6.6987553   -1.1141483 
C    -3.2769285    3.8455538   -3.6519728 
C    -2.9970327    2.4662358   -3.7386008 
C    -2.2880025    1.8690660   -2.6835395 
C    -1.8807227    2.6225622   -1.5627255 
C    -2.2105293    3.9865872   -1.4838184 
C    -2.9013015    4.6173105   -2.5377500 
H    -3.8077587    4.3317921   -4.4795986 
H    -2.0337023    0.8020636   -2.7389545 
H    -1.9272265    4.5726611   -0.6042453 
C    -3.4343013    1.6645467   -4.9442862 
H    -3.0940538    0.6178420   -4.8812945 
H    -4.5354523    1.6599320   -5.0355472 
H    -3.0342985    2.1009098   -5.8769757 
C    -3.2501366    6.0868675   -2.4549459 
H    -4.2428844    6.2249493   -1.9866788 
H    -2.5169282    6.6411464   -1.8454823 
H    -3.2919159    6.5479261   -3.4558035 
C     1.5234746    4.4850455    2.4598609 
C     1.0092199    3.2833762    2.9789881 
C     0.2147821    2.4826080    2.1420628 
C    -0.0562441    2.8653285    0.8097462 
C     0.5076232    4.0550502    0.3018141 
C     1.2834010    4.8866238    1.1329631 
H     2.1290166    5.1296964    3.1086173 
H    -0.1940773    1.5536452    2.5448867 
H     0.3440195    4.3474669   -0.7397667 
C     1.3166126    2.8485216    4.3942954 
H     1.2465796    3.6942414    5.0995617 
H     0.6281317    2.0553697    4.7304146 
H     2.3458954    2.4508823    4.4557725 
C     1.8530298    6.1903901    0.6198975 
H     1.4188701    6.4669065   -0.3534672 
H     1.6636681    7.0101882    1.3346256 
H     2.9485790    6.1168493    0.4915383 
