94
Energy =
C    -0.1733194    0.3955163    3.1077168 
C    -1.3397341    1.0234752    2.5805127 
C    -2.4111138    0.2589791    2.0546859 
H    -1.3307881    2.1101015    2.4304600 
Pd   -0.4552978   -0.1968257    0.9835519 
P    -1.4660071   -0.6605062   -1.0756383 
P     1.7670953   -0.6841574    0.4774514 
H    -0.2934865   -0.6052317    3.5501258 
H    -2.5177372   -0.7744177    2.4184716 
C     3.2602745    2.5738697    4.5042067 
C     2.9257018    1.3338876    5.0673272 
C     1.8190306    0.6211360    4.5902125 
C     1.0188031    1.1433275    3.5514570 
C     1.3876475    2.3790452    2.9702736 
C     2.4953043    3.0869066    3.4433054 
H     4.1192896    3.1370795    4.8837898 
H     3.5280586    0.9186053    5.8815325 
H     1.5603783   -0.3453847    5.0350337 
H     0.8136379    2.7764409    2.1260548 
H     2.7678675    4.0415887    2.9817517 
C    -5.9089398    1.7537752    0.0463446 
C    -4.8426085    2.6256579    0.3238500 
C    -3.7001709    2.1576295    0.9772034 
C    -3.6000516    0.8048045    1.3787305 
C    -4.6877847   -0.0568175    1.1062301 
C    -5.8271477    0.4111322    0.4419595 
H    -6.7999921    2.1236152   -0.4712253 
H    -4.9012154    3.6758484    0.0211628 
H    -2.8735827    2.8490735    1.1666632 
H    -4.6336120   -1.1051006    1.4157064 
H    -6.6569156   -0.2746960    0.2408481 
Fe    1.0770098   -2.4913392   -2.2971491 
C    -0.5468292   -1.3186643   -2.5048956 
C    -0.7634600   -2.5959907   -3.1475522 
H    -1.5452495   -3.3129276   -2.8921478 
C     0.2459050   -2.7559343   -4.1522684 
H     0.3712686   -3.6286874   -4.7956485 
C     1.0833319   -1.5916453   -4.1396022 
H     1.9567082   -1.4242169   -4.7723367 
C     0.6042307   -0.6997148   -3.1258138 
C     1.9607350   -2.1882214   -0.5210942 
C     2.9599477   -2.4734355   -1.5268993 
H     3.7678088   -1.8030909   -1.8209905 
C     2.6714465   -3.7652145   -2.0745454 
H     3.2231632   -4.2522312   -2.8807436 
C     1.5082660   -4.2892340   -1.4179932 
H     1.0254741   -5.2438689   -1.6341484 
C     1.0634005   -3.3236713   -0.4568814 
H     1.0342161    0.2666996   -2.8592195 
H     0.1918673   -3.4108936    0.1953026 
C    -2.2497614    0.8435464   -1.7071866 
C    -3.2985041    1.1316024   -2.5520529 
C    -3.2941346    2.5500067   -2.7344137 
C    -2.2414569    3.0484981   -1.9997797 
H    -3.9864776    0.4039252   -2.9789543 
H    -3.9903292    3.1374146   -3.3333312 
O    -1.5964311    2.0163997   -1.3693756 
C    -1.7085224    4.4173653   -1.7532012 
H    -1.7833639    4.6881235   -0.6835948 
H    -0.6446294    4.4897943   -2.0436586 
H    -2.2802519    5.1534525   -2.3382340 
C    -2.8012417   -1.8538576   -0.8636074 
C    -2.9593543   -2.8755683    0.0491946 
C    -4.1857593   -3.5338558   -0.2828488 
C    -4.7052535   -2.8764188   -1.3778708 
H    -2.2811698   -3.1104254    0.8704320 
H    -4.6380390   -4.3847126    0.2265209 
O    -3.8589991   -1.8624460   -1.7445946 
C    -5.9460385   -3.0357435   -2.1864186 
H    -6.5693198   -2.1248940   -2.1314960 
H    -5.7067383   -3.2138904   -3.2499748 
H    -6.5328890   -3.8869218   -1.8098375 
C     2.4273243    0.6833775   -0.4862226 
C     1.8567685    1.8873810   -0.8461469 
C     2.8331565    2.5788731   -1.6297774 
C     3.9413223    1.7602743   -1.6993668 
H     0.8453807    2.2108539   -0.5975596 
H     2.7378160    3.5642817   -2.0860412 
C     3.0049285   -0.9200439    1.7845002 
C     3.2373786   -1.9657000    2.6551132 
C     4.4105966   -1.6176372    3.3949351 
C     4.8213100   -0.3843308    2.9356162 
H     2.6495530   -2.8806854    2.7365983 
H     4.9021520   -2.2094056    4.1672792 
O     3.7013425    0.6048663   -1.0056948 
O     3.9614689    0.0489824    1.9608096 
C     5.2783024    1.8875555   -2.3436607 
H     6.0846278    1.8242970   -1.5911140 
H     5.4435668    1.0793169   -3.0788610 
H     5.3548967    2.8549750   -2.8623152 
C     5.9815579    0.4972904    3.2420091 
H     6.6732275    0.5525068    2.3813213 
H     5.6448675    1.5228705    3.4696662 
H     6.5342954    0.1026304    4.1080664 
