132
Energy =
C     0.1635096   -0.3931006   -3.5436962 
C     0.2456860    0.9801620   -3.1491645 
C     1.3299461    1.4648525   -2.3851369 
H    -0.6238818    1.6301798   -3.3086839 
Pd    0.2359050   -0.2110814   -1.3083236 
P     0.1775250    0.7998585    0.7948521 
P    -0.3265532   -2.3535857   -0.5720389 
H     1.1105406   -0.9093989   -3.7570150 
H     2.2462598    0.8535424   -2.3687200 
C    -3.3013601   -1.9799332   -5.5700687 
C    -3.4466769   -0.9384463   -4.6388620 
C    -2.3290860   -0.4283690   -3.9692681 
C    -1.0327935   -0.9343370   -4.2264885 
C    -0.9024732   -1.9708396   -5.1784221 
C    -2.0230852   -2.4926456   -5.8369240 
H    -4.1775035   -2.3833788   -6.0877426 
H    -4.4390105   -0.5256972   -4.4291822 
H    -2.4642600    0.3642778   -3.2246217 
H     0.0932245   -2.3615956   -5.4157593 
H    -1.8956802   -3.2948388   -6.5714199 
C     2.0074965    5.5029510   -1.0727555 
C     2.8848080    4.4716024   -0.7054275 
C     2.6440292    3.1615970   -1.1339359 
C     1.5126520    2.8505424   -1.9242061 
C     0.6262166    3.8965581   -2.2684070 
C     0.8794538    5.2076037   -1.8549801 
H     2.2003809    6.5318450   -0.7525131 
H     3.7658442    4.6891416   -0.0925994 
H     3.3371947    2.3619098   -0.8524651 
H    -0.2585750    3.6908303   -2.8779849 
H     0.1918435    6.0075988   -2.1471344 
Fe   -0.7523952   -0.7715731    3.8827170 
C    -0.8853653   -0.1240226    1.9573203 
C    -0.9415383   -1.5754760    2.0300881 
C    -2.0706803   -1.9238975    2.8532929 
C    -2.7014147   -0.7121414    3.2946426 
C    -1.9738931    0.3976864    2.7542883 
C     0.5988338   -1.8772882    4.9632280 
C     1.1523945   -0.6007513    4.6217518 
C     0.2961634    0.4133369    5.1748708 
C    -0.7859427   -0.2407960    5.8531391 
C    -0.6019271   -1.6575051    5.7180712 
C    -0.7089445    2.3938573    0.6229393 
C    -0.2180046    3.6494082    1.0171500 
C    -0.9974468    4.8092890    0.8615791 
C    -2.2706812    4.6927945    0.2628387 
C    -2.7842170    3.4443454   -0.1639126 
C    -1.9859593    2.3078145    0.0277171 
C     1.8164928    1.0575639    1.5540897 
C     2.0351064    1.8994408    2.6612637 
C     3.3113124    2.0296442    3.2291225 
C     4.3760516    1.2804095    2.6692702 
C     4.1798676    0.3974443    1.5821485 
C     2.8888860    0.3093652    1.0338088 
C    -0.0159033   -2.5068243    1.2967584 
H    -2.3767417   -2.9353464    3.1247347 
H    -3.5625572   -0.6469417    3.9622633 
H    -2.1968380    1.4551575    2.9028958 
H     1.0193413   -2.8479160    4.6952137 
H     2.0580162   -0.4310428    4.0383023 
H     0.4366003    1.4918382    5.0981480 
H    -1.6177041    0.2523617    6.3594736 
H    -1.2691771   -2.4309102    6.1030953 
H     0.7869493    3.7480496    1.4345705 
H    -2.3782812    1.3282399   -0.2712334 
H     1.1985406    2.4430364    3.1092472 
H     2.7104879   -0.3613298    0.1829941 
H     1.0041144   -2.0864684    1.3828656 
H     0.5241683   -4.6228662   -0.6735855 
H    -2.0389482   -2.8109646   -2.1100020 
C    -4.4767660   -1.9259126   -1.1536220 
C    -3.0599961   -1.6367986   -0.6283529 
C    -2.0896784   -2.7822934   -1.0011658 
C    -2.6124592   -4.1436000   -0.4977589 
C    -4.0247793   -4.4166602   -1.0486682 
C    -4.9961035   -3.2880938   -0.6651865 
H    -4.4568528   -1.9209290   -2.2596811 
H    -5.1594460   -1.1147322   -0.8403456 
H    -3.0887510   -1.5111041    0.4682597 
H    -2.6783022   -0.6888547   -1.0496413 
H    -1.9240531   -4.9603289   -0.7810561 
H    -2.6601625   -4.1245538    0.6068013 
H    -3.9735168   -4.5013953   -2.1520625 
H    -4.3889695   -5.3887926   -0.6707287 
H    -5.1101913   -3.2647768    0.4369004 
H    -5.9990708   -3.4874647   -1.0829168 
C     3.1848622   -4.4409993   -1.5783801 
C     2.2460543   -3.3475035   -1.0379921 
C     0.7590497   -3.7138391   -1.2600254 
C     0.4872239   -4.0145029   -2.7454556 
C     1.4273015   -5.1125209   -3.2745494 
C     2.9032215   -4.7415971   -3.0589666 
H     3.0442785   -5.3638384   -0.9820872 
H     4.2360012   -4.1307286   -1.4360903 
H     2.4496554   -2.3897940   -1.5604347 
H     2.4518289   -3.1713784    0.0337703 
H    -0.5647471   -4.3096625   -2.9022222 
H     0.6441222   -3.0899200   -3.3248002 
H     1.2066013   -6.0646990   -2.7533424 
H     1.2231764   -5.2856650   -4.3465977 
H     3.1465397   -3.8459974   -3.6652631 
H     3.5609150   -5.5532182   -3.4173511 
C     0.0037325   -3.9347541    1.8676702 
H     0.1529193   -3.8752526    2.9583386 
H    -0.9364425   -4.4760256    1.6851310 
H     0.8299328   -4.5292069    1.4461868 
C    -0.5115964    6.1574457    1.3371102 
H    -0.4167104    6.8713128    0.4998616 
H    -1.2298266    6.5986530    2.0499572 
H     0.4729526    6.0741453    1.8241241 
C    -4.1630404    3.3425871   -0.7736472 
H    -4.8468664    4.0710612   -0.3076633 
H    -4.1420664    3.5596361   -1.8585231 
H    -4.5767684    2.3283473   -0.6475477 
O    -3.0562941    5.8218187    0.1694462 
C    -3.0357009    6.5064745   -1.0886365 
H    -3.7264053    7.3570898   -0.9908591 
H    -2.0217250    6.8836589   -1.3228430 
H    -3.3736947    5.8533570   -1.9153609 
C     3.5616342    2.9068331    4.4324934 
H     2.6143378    3.2553503    4.8744554 
H     4.1362654    2.3585210    5.1978080 
H     4.1570712    3.7984890    4.1631446 
C     5.3235323   -0.4302048    1.0436903 
H     6.0097341   -0.7175810    1.8569877 
H     4.9513520   -1.3411545    0.5457359 
H     5.9145483    0.1356590    0.2988933 
O     5.6126877    1.3570178    3.2676762 
C     6.5367702    2.2900870    2.6894247 
H     7.4489594    2.2419995    3.3022060 
H     6.7816548    2.0221576    1.6442206 
H     6.1317239    3.3198055    2.7114599 
