110
Energy =
C     2.7304583    0.9781251    0.6367948 
C     2.7367900    1.8989913   -0.4685835 
C     1.8730411    3.0034540   -0.4999504 
H     3.3800713    1.6926803   -1.3333064 
Pd    0.7744716    0.8268408   -0.3662699 
P    -1.0071646    0.6098758   -1.9268296 
P    -0.1267822   -0.5044246    1.3024424 
H     2.4958772    1.3897206    1.6283598 
H     1.3325014    3.2333685    0.4313827 
C     5.0311349   -2.6703574    0.6601946 
C     4.6806443   -2.0402421    1.8639786 
C     3.9574666   -0.8420369    1.8467362 
C     3.5447078   -0.2546344    0.6282244 
C     3.9099556   -0.9025060   -0.5779666 
C     4.6509944   -2.0891126   -0.5608878 
H     5.5887887   -3.6116820    0.6768312 
H     4.9744248   -2.4879369    2.8186204 
H     3.7171507   -0.3394117    2.7887653 
H     3.5917283   -0.4847409   -1.5402156 
H     4.9239363   -2.5715238   -1.5054589 
C     1.6072226    6.1526943   -3.4003611 
C     2.4653261    5.0651322   -3.6417936 
C     2.5711933    4.0291153   -2.7107669 
C     1.8091454    4.0523158   -1.5166409 
C     0.9605333    5.1630872   -1.2827946 
C     0.8600442    6.2018088   -2.2134127 
H     1.5315318    6.9636564   -4.1318724 
H     3.0613852    5.0325846   -4.5594916 
H     3.2553722    3.1991838   -2.9115900 
H     0.3727946    5.2001792   -0.3583602 
H     0.2001502    7.0520064   -2.0135510 
Fe   -3.1211355   -2.3908679    1.1283502 
C    -1.9155623   -0.7624534    1.1326548 
C    -2.6033925   -0.8889785   -0.1442021 
C    -4.0171996   -0.8596121    0.1322869 
C    -4.2077739   -0.7213610    1.5476559 
C    -2.9199916   -0.6726777    2.1733807 
C    -3.0284692   -4.1901815    0.1347204 
C    -2.0267902   -4.1323431    1.1563175 
C    -2.6851099   -3.9164648    2.4140973 
C    -4.0976787   -3.8452064    2.1664540 
C    -4.3097740   -4.0092926    0.7558902 
C     0.0322730    0.5159646    2.8228588 
C     1.0527100    0.3110568    3.7732566 
C     1.2344323    1.2161089    4.8273883 
C     0.4029156    2.3392124    4.9400203 
C    -0.6216587    2.5512124    4.0014847 
C    -0.8023043    1.6503451    2.9490193 
C     0.6708777   -2.1168753    1.6283957 
C     1.3396120   -2.7265224    0.5498960 
C     1.9774583   -3.9585824    0.7196697 
C     1.9683231   -4.5762717    1.9798519 
C     1.2750253   -3.9931807    3.0533058 
C     0.6174377   -2.7702555    2.8757693 
C    -1.9376870   -1.0076728   -1.4936753 
H    -4.8160368   -0.9650081   -0.6031010 
H    -5.1694162   -0.7004952    2.0633833 
H    -2.7225196   -0.5736906    3.2418795 
H    -2.8451862   -4.3509633   -0.9290040 
H    -0.9524685   -4.2334596    1.0022890 
H    -2.2001031   -3.8226883    3.3867040 
H    -4.8730515   -3.6713689    2.9148796 
H    -5.2742624   -3.9842062    0.2453129 
H     1.7131874   -0.5558259    3.6948169 
H    -1.5992111    1.8266057    2.2208347 
H     1.3779180   -2.2196139   -0.4192894 
H     0.0658028   -2.3268447    3.7105390 
H    -1.0803977   -1.6935439   -1.3630360 
C    -2.8773747   -1.6234980   -2.5470413 
H    -3.3535711   -2.5135256   -2.1034787 
H    -3.6758169   -0.9383939   -2.8634058 
H    -2.3290135   -1.9483826   -3.4432178 
C     0.6374189    3.3585727    6.0343713 
F    -0.5265696    3.8898551    6.4735614 
F     1.2774423    2.8192345    7.0950279 
F     1.3994019    4.3847308    5.5794415 
H     2.0218973    1.0467439    5.5673751 
H    -1.2785479    3.4204459    4.1007211 
H     2.5061535   -4.4271498   -0.1142470 
H     1.2528113   -4.4987710    4.0228305 
C     2.7898392   -5.8290100    2.1903037 
F     4.0938157   -5.5058007    2.4118382 
F     2.3667158   -6.5435812    3.2539438 
F     2.7606478   -6.6340486    1.1044851 
C    -0.2013056    0.2652042   -3.6394608 
C    -2.2560389    2.0569127   -1.9731772 
C     0.4688288   -1.1274906   -3.5362466 
H     1.0975171   -1.2876560   -4.4307598 
H     1.1277402   -1.1855287   -2.6487905 
H    -0.2554054   -1.9562047   -3.4908897 
C    -3.6288209    1.6972912   -2.5753735 
H    -4.2530727    2.6095859   -2.5990430 
H    -3.5510574    1.3217984   -3.6080991 
H    -4.1600697    0.9536837   -1.9609153 
C    -1.1733850    0.3151380   -4.8367271 
H    -0.6198852    0.0404318   -5.7538263 
H    -2.0172440   -0.3828585   -4.7373568 
H    -1.5785749    1.3279368   -4.9912855 
C     0.9292320    1.2956745   -3.8591923 
H     1.4485257    1.0607197   -4.8064959 
H     0.5663246    2.3308187   -3.9237441 
H     1.6689517    1.2439890   -3.0420068 
C    -2.4413575    2.4988108   -0.5003713 
H    -3.1359928    3.3584387   -0.4681085 
H    -2.8670313    1.6953821    0.1232530 
H    -1.4791404    2.8166516   -0.0606487 
C    -1.6343748    3.2319512   -2.7553886 
H    -2.2644184    4.1280029   -2.6080787 
H    -0.6233397    3.4760684   -2.3941971 
H    -1.5875436    3.0376186   -3.8388605 
