142
Energy =
C     1.0890300    2.8644289    0.3810898 
C     1.3701539    2.3537243    1.6788762 
C     2.4547501    1.4763452    1.9051749 
H     0.6652864    2.5507150    2.4954392 
Pd    0.9165551    0.6040602    0.3948129 
P     1.1688702   -1.5831864    1.1870186 
P    -0.2748285    0.4413189   -1.6335662 
H     1.9224122    2.8973412   -0.3353524 
H     3.2469274    1.4477807    1.1416692 
C    -2.1034363    5.5772416   -0.5912819 
C    -1.0186599    5.4003803   -1.4622248 
C     0.0141785    4.5167063   -1.1283514 
C    -0.0206401    3.7842165    0.0795358 
C    -1.1147157    3.9834650    0.9547623 
C    -2.1415813    4.8706620    0.6226652 
H    -2.9113999    6.2695192   -0.8500882 
H    -0.9734111    5.9569062   -2.4041093 
H     0.8649201    4.3884254   -1.8053657 
H    -1.1756568    3.4317821    1.8985455 
H    -2.9802696    5.0091352    1.3125330 
C     3.6384488   -0.2468856    5.6640861 
C     4.3923567   -0.4719947    4.5030115 
C     4.0016648    0.1120364    3.2923994 
C     2.8333176    0.9062433    3.2068760 
C     2.0892325    1.1314276    4.3903438 
C     2.4950716    0.5686311    5.6034873 
H     3.9337170   -0.7052468    6.6126428 
H     5.2841039   -1.1053424    4.5382016 
H     4.6080474   -0.0421779    2.3943734 
H     1.1860887    1.7486471    4.3666015 
H     1.9092988    0.7508862    6.5094719 
Fe   -2.8556580   -3.7856159   -0.0106338 
C    -1.2374826   -2.6150824    0.3166921 
C    -1.8592959   -2.2497047   -0.9480021 
C    -3.2302474   -1.8988034   -0.6698089 
H    -3.9579899   -1.5852435   -1.4186659 
C    -3.4509446   -1.9921715    0.7410921 
H    -4.3910648   -1.7945483    1.2584799 
C    -2.2351712   -2.4414089    1.3516753 
H    -2.0996682   -2.6655481    2.4106959 
C    -2.4093919   -5.6958229    0.5633653 
H    -1.5331491   -6.0099802    1.1343175 
C    -2.5017894   -5.6189466   -0.8668575 
H    -1.7132133   -5.8878053   -1.5722480 
C    -3.8177777   -5.1497761   -1.2031257 
H    -4.2076770   -4.9788493   -2.2083774 
C    -4.5388036   -4.9436446    0.0196149 
H    -5.5608903   -4.5707027    0.1065335 
C    -3.6697096   -5.2819247    1.1109397 
H    -3.9160093   -5.2093300    2.1720334 
C    -1.2046811   -2.1857162   -2.2854381 
C    -0.3689876   -1.0964445   -2.6657341 
C     0.3045305   -1.1389395   -3.9045560 
H     0.9511651   -0.3081985   -4.1998866 
C     0.1349246   -2.2168171   -4.7838656 
H     0.6711301   -2.2275697   -5.7382221 
C    -0.7440307   -3.2526147   -4.4469559 
H    -0.9127477   -4.0849545   -5.1380266 
C    -1.4008378   -3.2277777   -3.2102850 
H    -2.0729727   -4.0379337   -2.9232969 
C     0.5489448    1.6337725   -2.7686597 
C    -0.1598851    2.4983993   -3.6182580 
H    -1.2537149    2.4921487   -3.6212309 
C     0.5126732    3.4048357   -4.4586807 
C     1.9247388    3.4363804   -4.4172961 
C     2.6697210    2.5599304   -3.5895232 
C     1.9599465    1.6672925   -2.7725359 
H     2.5250208    0.9778597   -2.1319289 
C    -2.0290650    0.9312233   -1.4968121 
C    -2.5344920    1.3281125   -0.2481317 
H    -1.8658400    1.3489907    0.6190836 
C    -3.8837772    1.6745340   -0.0880838 
C    -4.7235411    1.6184141   -1.2235545 
C    -4.2524400    1.1884126   -2.4884068 
C    -2.8964067    0.8419957   -2.6034008 
H    -2.5248255    0.4620448   -3.5621651 
C     2.9325848   -2.0934097    1.0970893 
C     3.5646707   -3.1050591    1.8440650 
H     3.0031247   -3.7487158    2.5253859 
C     4.9484219   -3.3025970    1.7265299 
C     5.7168552   -2.5341686    0.8372420 
H     6.7955266   -2.6910040    0.7581994 
C     5.0766715   -1.5686765    0.0513173 
C     3.6990351   -1.3552934    0.1790058 
H     3.2094843   -0.5773811   -0.4183776 
C     0.6167897   -1.4817392    2.9433706 
C    -0.4743653   -0.6172721    3.1395570 
H    -0.8786890   -0.0584721    2.2878334 
C    -1.0485971   -0.4615771    4.4075203 
C    -0.5350914   -1.1552785    5.5071291 
H    -0.9685579   -1.0180978    6.5013097 
C     0.5674865   -2.0043456    5.3171572 
C     1.1375432   -2.1775201    4.0486722 
H     2.0093087   -2.8257205    3.9590035 
C     0.1768188   -3.0751888    0.5603274 
H     0.1613193   -3.7679142    1.4214785 
C     0.8889532   -3.7543116   -0.6207866 
H     0.2101649   -4.5022790   -1.0609697 
H     1.1619023   -3.0399400   -1.4139656 
H     1.8060708   -4.2628960   -0.2825205 
C    -2.2141927    0.4891824    4.5320060 
F    -2.6332755    0.6424457    5.7991852 
F    -1.8729951    1.7282186    4.0561691 
F    -3.2688779    0.0732219    3.7865721 
C     1.1453973   -2.7227828    6.5191958 
F     2.3259420   -3.3181244    6.2327114 
F     1.3605078   -1.8580522    7.5428415 
F     0.3023153   -3.6760711    6.9741962 
C     5.6251487   -4.2994222    2.6457935 
F     6.8002013   -4.7300012    2.1468410 
F     5.8770120   -3.7306338    3.8545183 
F     4.8386526   -5.3767410    2.8696727 
C     5.8399452   -0.6609698   -0.8859584 
F     5.2806745   -0.6535097   -2.1243105 
F     5.7900545    0.6264714   -0.4361653 
F     7.1319481   -1.0046293   -1.0098092 
C    -0.2476977    4.3302228   -5.3788368 
H    -0.4112586    5.3181153   -4.9079347 
H     0.3168323    4.5003968   -6.3100211 
H    -1.2386214    3.9160575   -5.6258601 
C     4.1795119    2.5972295   -3.6110876 
H     4.6089057    1.7270124   -3.0909500 
H     4.5499863    2.6187660   -4.6496851 
H     4.5629108    3.5097950   -3.1181046 
C    -4.4555731    2.0619984    1.2535864 
H    -5.2071587    1.3232376    1.5839188 
H    -3.6688990    2.1211925    2.0199875 
H    -4.9707352    3.0366488    1.2030767 
C    -5.1953009    1.0659729   -3.6628592 
H    -5.2694297    2.0177062   -4.2220859 
H    -4.8450094    0.2965603   -4.3704994 
H    -6.2096755    0.8041386   -3.3196007 
O     2.6117809    4.2864065   -5.2544317 
O    -6.0584481    1.9096284   -1.0477327 
C     2.8317434    5.6129210   -4.7552558 
H     3.3986637    6.1470824   -5.5319906 
H     1.8762601    6.1397565   -4.5706796 
H     3.4188611    5.5955376   -3.8171009 
C    -6.4692249    3.2249781   -1.4477903 
H    -7.5337655    3.3104049   -1.1838064 
H    -5.8904120    4.0015726   -0.9116684 
H    -6.3485850    3.3772529   -2.5367670 
