112
Energy =
C     2.3996111   -0.7511901   -2.2001826 
C     2.7459365    0.6093884   -1.9769552 
C     3.2849940    1.0306151   -0.7362992 
H     2.4922714    1.3593542   -2.7370730 
Pd    1.2032403    0.1248022   -0.4798257 
P     0.7524336    1.4217156    1.4212873 
P    -0.7332975   -1.1941546   -0.3095335 
H     2.9360014   -1.4978035   -1.5955200 
H     3.7579965    0.2590646   -0.1094880 
C     0.8757068   -2.2894889   -5.9241226 
C     0.5555351   -0.9795291   -5.5278193 
C     1.0477993   -0.4665779   -4.3235335 
C     1.8646254   -1.2545632   -3.4805295 
C     2.1918086   -2.5636169   -3.9005394 
C     1.7047503   -3.0752697   -5.1102957 
H     0.4868309   -2.6903018   -6.8656034 
H    -0.0861881   -0.3573710   -6.1606118 
H     0.7744916    0.5487855   -4.0189848 
H     2.8405772   -3.1829792   -3.2711076 
H     1.9723783   -4.0915372   -5.4174196 
C     4.4776861    5.0294604    0.3053137 
C     5.0018677    3.9220737    0.9871306 
C     4.5975694    2.6271473    0.6395239 
C     3.6706327    2.4120410   -0.4055807 
C     3.1652944    3.5390965   -1.0956728 
C     3.5588484    4.8313611   -0.7396526 
H     4.7864287    6.0432701    0.5802939 
H     5.7253747    4.0650374    1.7966171 
H     5.0035538    1.7661490    1.1807177 
H     2.4450977    3.4061054   -1.9081369 
H     3.1442592    5.6906184   -1.2763352 
Fe   -2.5799287   -1.6724724    2.7946397 
C    -1.0325075   -1.4853866    1.4784573 
C    -0.9350563   -0.4941267    2.5480068 
C    -0.8710400   -1.2021212    3.8005076 
C    -0.9315592   -2.6064137    3.5371497 
C    -1.0397614   -2.7895570    2.1222633 
C    -4.3877566   -1.6011173    1.8239910 
C    -4.2367880   -2.8392699    2.5316629 
C    -4.0403784   -2.5326797    3.9207913 
C    -4.0643569   -1.1040032    4.0697641 
C    -4.2794518   -0.5272215    2.7730777 
C    -0.8277012    0.9977144    2.3874824 
H    -0.8125886   -0.7448596    4.7884740 
H    -0.9366362   -3.4011621    4.2850469 
H    -1.1210456   -3.7570690    1.6275347 
H    -4.5559598   -1.4973750    0.7508979 
H    -4.2583938   -3.8377747    2.0915041 
H    -3.8783911   -3.2574575    4.7207508 
H    -3.9330770   -0.5552849    5.0041687 
H    -4.3574668    0.5394245    2.5531001 
H    -1.6041028    1.3448725    1.6909562 
C    -0.9614389    1.7681883    3.7068980 
H    -1.8909156    1.4541700    4.2138945 
H    -0.1122769    1.5713480    4.3831657 
H    -1.0250180    2.8529356    3.5290203 
H    -1.5541054   -3.4333811   -0.3425169 
C     0.5133339   -5.1657442   -0.9344260 
C     0.5911128   -3.6598926   -0.6282837 
C    -0.7507148   -2.9638537   -0.9451496 
C    -1.1299824   -3.1726962   -2.4262409 
C    -1.2010374   -4.6802229   -2.7446892 
C     0.1040443   -5.4131150   -2.3952590 
H    -0.2265417   -5.6364968   -0.2562372 
H     1.4863591   -5.6423239   -0.7177105 
H     1.3731217   -3.1950514   -1.2542206 
H     0.8868602   -3.4914830    0.4227344 
H    -2.1086123   -2.7140887   -2.6485286 
H    -0.3824841   -2.6915169   -3.0804301 
H    -2.0377804   -5.1294346   -2.1733456 
H    -1.4413861   -4.8132076   -3.8147584 
H     0.9095178   -5.0515977   -3.0615094 
H    -0.0042726   -6.4957910   -2.5856888 
H    -2.9727669   -1.2088387   -1.1960392 
C    -3.1028416    0.6750561   -3.2508033 
C    -1.8632160    0.1179312   -2.5284065 
C    -2.2271064   -0.3921046   -1.1161079 
C    -2.8528633    0.7573537   -0.3092333 
C    -4.1122778    1.2972626   -1.0088242 
C    -3.7886188    1.7811904   -2.4321278 
H    -3.8181533   -0.1524395   -3.4265013 
H    -2.8109291    1.0536145   -4.2472015 
H    -1.1050015    0.9187729   -2.4136197 
H    -1.3894035   -0.6676451   -3.1359049 
H    -3.0817461    0.4135467    0.7109915 
H    -2.1149179    1.5789384   -0.2289329 
H    -4.8771012    0.4966744   -1.0525460 
H    -4.5474038    2.1171083   -0.4093439 
H    -3.1128680    2.6576181   -2.3676298 
H    -4.7059851    2.1257038   -2.9415060 
C     4.1132314    0.5595505    4.5136928 
C     3.3414445   -0.4660997    3.9433614 
C     2.3418192   -0.1583110    3.0128567 
C     2.0899453    1.1869352    2.6508682 
C     2.8809760    2.2075517    3.2124777 
C     3.8846209    1.8908755    4.1411423 
H     4.8972467    0.3184460    5.2388827 
H     3.5225761   -1.5103526    4.2181799 
H     1.7560673   -0.9656976    2.5586308 
H     2.7455832    3.2470924    2.9092645 
H     4.4956825    2.6941376    4.5658817 
C    -0.1239848    5.8084257    0.1438421 
C     0.2963983    5.5720959    1.4612443 
C     0.5906779    4.2701806    1.8904942 
C     0.4934379    3.1863904    0.9916896 
C     0.0679652    3.4376146   -0.3315300 
C    -0.2476821    4.7357258   -0.7509484 
H    -0.3580445    6.8270284   -0.1823667 
H     0.3875306    6.4051367    2.1658327 
H     0.8876507    4.1094885    2.9298985 
H     0.0005445    2.5992488   -1.0363997 
H    -0.5784371    4.9096863   -1.7802659 
