112
Energy =
C     2.1248496    2.5450003    0.3471899 
C     0.8972456    3.2357140    0.4687211 
C    -0.0034186    2.9926093    1.5422072 
H     0.5932481    3.9182374   -0.3355347 
Pd    0.3527911    1.1022100    0.2991455 
P    -1.3545434   -0.4025039    0.8849949 
P     1.4485793   -0.4642356   -1.0639585 
H     2.5395061    2.0886854    1.2592652 
H     0.4230776    2.5856084    2.4708454 
C     5.0707477    3.3323153   -2.6861780 
C     5.4571261    2.9747272   -1.3863261 
C     4.4861606    2.6969326   -0.4157772 
C     3.1100698    2.8029655   -0.7182745 
C     2.7363553    3.1859061   -2.0266024 
C     3.7049292    3.4345464   -3.0030897 
H     5.8285847    3.5342857   -3.4501865 
H     6.5186887    2.8987728   -1.1290573 
H     4.7929830    2.3954017    0.5912852 
H     1.6775537    3.2675446   -2.2876929 
H     3.3941802    3.7077213   -4.0166829 
C    -3.4222839    5.5452594    2.1315292 
C    -3.0313137    5.1961723    0.8279915 
C    -1.9471708    4.3360393    0.6234623 
C    -1.2241310    3.8074029    1.7181280 
C    -1.6416984    4.1532177    3.0236119 
C    -2.7257431    5.0159695    3.2285277 
H    -4.2697905    6.2195857    2.2899182 
H    -3.5779307    5.5950313   -0.0328241 
H    -1.6611956    4.0635776   -0.3987140 
H    -1.0921036    3.7577309    3.8854135 
H    -3.0247854    5.2794676    4.2482127 
Fe   -0.0014635   -3.4306698   -2.4540314 
C     0.7563631   -2.1530420   -1.0650513 
C    -0.6309640   -2.4930419   -0.7834140 
C    -0.6919602   -3.9228733   -0.6074209 
C     0.6193184   -4.4667194   -0.8125850 
C     1.5133081   -3.3872256   -1.1053596 
C    -1.4462053   -3.1729321   -3.8852580 
C    -0.2403491   -2.5006002   -4.2674475 
C     0.8136330   -3.4749950   -4.3264971 
C     0.2543165   -4.7520803   -3.9831590 
C    -1.1424561   -4.5649119   -3.7068336 
C     3.1609329   -0.7578882   -0.4743058 
C     3.2969384   -1.4377816    0.7585929 
C     4.5627971   -1.6656345    1.3066658 
C     5.7122241   -1.2180824    0.6319805 
C     5.5823207   -0.5290239   -0.5797822 
C     4.3128477   -0.2857217   -1.1297852 
C     1.5072322    0.0741828   -2.8144311 
C     0.5485908    1.0106862   -3.2487813 
C     0.4989981    1.4021457   -4.5944433 
C     1.4168781    0.8691245   -5.5121013 
C     2.3679680   -0.0726829   -5.0863653 
C     2.4073537   -0.4802594   -3.7465896 
C    -1.7609764   -1.5107610   -0.6165407 
H    -1.5907704   -4.5053933   -0.4014428 
H     0.8817524   -5.5258916   -0.7890512 
H     2.5834781   -3.4670081   -1.3015731 
H    -2.4227228   -2.7043196   -3.7501189 
H    -0.1414827   -1.4337176   -4.4689035 
H     1.8548466   -3.2813298   -4.5865872 
H     0.7986498   -5.6960636   -3.9194535 
H    -1.8437188   -5.3412710   -3.3951799 
H     2.4064363   -1.8010187    1.2825642 
H     4.2311468    0.2852413   -2.0583139 
H    -0.1578441    1.4320017   -2.5218877 
H     3.1285293   -1.2405272   -3.4316097 
H    -1.7277004   -0.7998960   -1.4623155 
C    -3.1378337   -2.1969233   -0.6082314 
H    -3.2172260   -2.8407502   -1.5007090 
H    -3.2835414   -2.8341779    0.2786224 
H    -3.9606841   -1.4670605   -0.6447115 
H     4.6537546   -2.1975478    2.2594576 
H     6.4704870   -0.1603252   -1.1029082 
H    -0.2516208    2.1275340   -4.9248793 
H     3.0745489   -0.5008198   -5.8048673 
H     6.7044501   -1.4032210    1.0560816 
H     1.3859370    1.1790012   -6.5617033 
H    -3.6442117   -0.7570954    1.5284340 
C    -5.0739712    1.5330734    0.8535149 
C    -3.6489077    1.1263618    0.4405657 
C    -3.0286957    0.1623474    1.4773588 
C    -3.0170012    0.8014679    2.8806213 
C    -4.4410148    1.2195090    3.2943362 
C    -5.0877398    2.1533142    2.2594143 
H    -5.7276372    0.6384021    0.8316210 
H    -5.4849590    2.2446246    0.1147979 
H    -3.0102156    2.0258899    0.3773494 
H    -3.6586181    0.6713133   -0.5667561 
H    -2.6090176    0.0964088    3.6246488 
H    -2.3572145    1.6858975    2.8711570 
H    -5.0618480    0.3093864    3.4128678 
H    -4.4060314    1.7091887    4.2842491 
H    -4.5287267    3.1062681    2.2356089 
H    -6.1223622    2.3971228    2.5601463 
H     0.0893775   -2.1503770    1.5527003 
C    -0.8828839   -3.5537051    3.7182228 
C    -1.6214092   -2.5748171    2.7855667 
C    -0.6308009   -1.5684777    2.1617789 
C     0.1901820   -0.8194855    3.2388135 
C     0.9058998   -1.8146028    4.1695171 
C    -0.0828169   -2.8094851    4.7992398 
H    -0.1941783   -4.1744686    3.1117668 
H    -1.6102517   -4.2449095    4.1804107 
H    -2.3964976   -2.0346812    3.3607020 
H    -2.1425652   -3.1375831    1.9924879 
H     0.9262084   -0.1554000    2.7444548 
H    -0.4715551   -0.1662786    3.8370425 
H     1.6637332   -2.3749141    3.5856593 
H     1.4559653   -1.2627831    4.9527897 
H    -0.7828550   -2.2596800    5.4591065 
H     0.4555345   -3.5294589    5.4409206 
