112
Energy =
C     1.4931826    2.6951558   -0.8767882 
C     0.1339284    3.0466886   -0.6538324 
C    -0.4569484    2.9188733    0.6243747 
H    -0.4927670    3.3304279   -1.5075813 
Pd    0.3341234    0.8895410   -0.1879948 
P    -0.8774748   -0.6837498    1.1179972 
P     1.7470137   -0.7834532   -0.9798289 
H     2.1502032    2.6918961    0.0057068 
H     0.2297722    2.8629381    1.4797316 
C     3.6733806    3.3611561   -4.5249956 
C     4.3423194    3.0491818   -3.3319346 
C     3.6149871    2.8017899   -2.1635262 
C     2.2025837    2.8698760   -2.1554162 
C     1.5424836    3.1698047   -3.3705725 
C     2.2703276    3.4140936   -4.5398827 
H     4.2412952    3.5599529   -5.4395279 
H     5.4351981    2.9956765   -3.3123693 
H     4.1444800    2.5627511   -1.2346509 
H     0.4503423    3.2396861   -3.4027400 
H     1.7400491    3.6576064   -5.4664753 
C    -4.3372480    4.3889062    1.7674513 
C    -3.4051468    3.9871764    2.7359030 
C    -2.1611798    3.4784085    2.3431123 
C    -1.8176380    3.3595657    0.9757613 
C    -2.7786939    3.7496912    0.0121249 
C    -4.0190456    4.2619178    0.4045081 
H    -5.3071798    4.7959106    2.0702483 
H    -3.6426147    4.0819128    3.8005213 
H    -1.4270195    3.1920777    3.1048858 
H    -2.5540007    3.6624060   -1.0559871 
H    -4.7437127    4.5675873   -0.3570825 
Fe   -0.8506613   -1.7481827   -2.9151971 
C     0.7129383   -2.1022369   -1.6610091 
C    -0.5405173   -2.5628323   -1.0806893 
C    -1.0835461   -3.5390768   -1.9941568 
C    -0.2033945   -3.6750348   -3.1142108 
C     0.9031621   -2.7910922   -2.9196357 
C    -1.9964204   -0.0539607   -2.7417831 
C    -0.8761611    0.1962884   -3.5974693 
C    -0.9309372   -0.7297162   -4.6914877 
C    -2.0956112   -1.5506052   -4.5130635 
C    -2.7541201   -1.1345363   -3.3052218 
C     2.7139052   -1.5535594    0.3798219 
C     2.7490322   -2.9504451    0.5558637 
C     3.5002342   -3.5071357    1.6018316 
C     4.2410386   -2.6778952    2.4575404 
C     4.2287810   -1.2861884    2.2698606 
C     3.4559522   -0.7234022    1.2455214 
C     3.0270015   -0.4996069   -2.2741681 
C     4.4018399   -0.6607114   -2.0044596 
C     5.3465150   -0.4857028   -3.0264021 
C     4.9348460   -0.1501644   -4.3230968 
C     3.5694951    0.0245592   -4.5940913 
C     2.6234956   -0.1376024   -3.5767096 
C    -1.1513815   -2.3673251    0.2927636 
H    -2.0271909   -4.0707522   -1.8522262 
H    -0.3643935   -4.3137814   -3.9843992 
H     1.7432123   -2.6497674   -3.6001827 
H    -2.2181518    0.4869178   -1.8246046 
H    -0.1171464    0.9615719   -3.4288564 
H    -0.2104930   -0.8096365   -5.5077307 
H    -2.4122924   -2.3640276   -5.1684956 
H    -3.6625371   -1.5729604   -2.8878941 
H     2.1905412   -3.5995411   -0.1265771 
H     3.4321423    0.3645056    1.1115936 
H     4.7432530   -0.9423242   -1.0046862 
H     1.5631074   -0.0187628   -3.7957199 
H    -2.2432901   -2.3678103    0.1253497 
C    -0.8226909   -3.5804917    1.1950747 
H    -0.9955147   -4.5114093    0.6289138 
H     0.2297636   -3.5751318    1.5211039 
H    -1.4689844   -3.6014141    2.0862074 
H     3.5164597   -4.5932818    1.7397986 
H     4.8175813   -0.6384178    2.9273201 
H     6.4098673   -0.6236495   -2.8046432 
H     3.2368363    0.2993382   -5.5998598 
H     4.8341288   -3.1156907    3.2669454 
H     5.6750009   -0.0199028   -5.1192294 
H    -2.4676980    0.6242114    2.3477310 
C    -4.8269408   -0.7990271    2.7833289 
C    -3.4435578   -1.3265726    2.3534407 
C    -2.6239892   -0.2187145    1.6451653 
C    -3.4246615    0.3073748    0.4357280 
C    -4.8140520    0.8198419    0.8492635 
C    -5.6207263   -0.2589899    1.5851722 
H    -4.6899881    0.0073371    3.5305767 
H    -5.3840099   -1.6081977    3.2887604 
H    -3.5936551   -2.1706445    1.6525457 
H    -2.9145923   -1.7300106    3.2274028 
H    -2.8598799    1.1134215   -0.0603355 
H    -3.5428718   -0.5138127   -0.2990307 
H    -4.6832666    1.6960399    1.5091398 
H    -5.3554060    1.1771231   -0.0450788 
H    -5.8457088   -1.0931681    0.8909169 
H    -6.5929602    0.1466554    1.9172568 
H     0.9924220   -1.5246788    2.3733234 
C     0.4932081   -1.6859371    5.0918918 
C    -0.5143894   -1.5573118    3.9335503 
C     0.1425592   -0.8959408    2.7013281 
C     0.7089801    0.4879123    3.1082357 
C     1.6638052    0.4040023    4.3121313 
C     1.0267754   -0.3096522    5.5123800 
H     1.3353541   -2.3317033    4.7731631 
H     0.0065405   -2.1930946    5.9440091 
H    -1.3588065   -0.9296444    4.2745262 
H    -0.9231224   -2.5488678    3.6878672 
H     1.2343043    0.9355703    2.2429047 
H    -0.1352414    1.1632216    3.3518509 
H     2.5676176   -0.1523139    4.0033909 
H     1.9930330    1.4221728    4.5888635 
H     0.1903900    0.2999235    5.9081921 
H     1.7608385   -0.4093932    6.3317144 
