142
Energy =
C    -0.4535392    3.2087065    1.0686704 
C    -0.7695483    2.5618045    2.2850267 
C     0.2338526    1.8922801    3.0476148 
H    -1.8213228    2.4446875    2.5774248 
Pd    0.0624383    0.9374164    1.0475681 
P     0.9997369   -1.1275835    1.5997304 
P    -0.1949222    0.5127694   -1.2715819 
H     0.6042692    3.4484758    0.8903122 
H     1.2613530    2.2811899    2.9769253 
C    -3.2001942    5.2814756   -1.5093637 
C    -1.9004282    4.9792215   -1.9443722 
C    -1.0075278    4.3264717   -1.0892449 
C    -1.4064111    3.9322242    0.2094445 
C    -2.7128008    4.2593811    0.6412506 
C    -3.5955616    4.9346939   -0.2076626 
H    -3.8968254    5.8025190   -2.1745271 
H    -1.5776555    5.2584174   -2.9524574 
H     0.0042216    4.0959794   -1.4348369 
H    -3.0376350    4.0043659    1.6552178 
H    -4.5972567    5.1944146    0.1494021 
C    -0.6085533   -0.2847666    6.6660747 
C    -1.4846576   -0.3815523    5.5715162 
C    -1.2208275    0.3290442    4.3954021 
C    -0.0699275    1.1427795    4.2857979 
C     0.8023736    1.2316187    5.3909747 
C     0.5291934    0.5296372    6.5728404 
H    -0.8040036   -0.8518761    7.5811870 
H    -2.3740925   -1.0178119    5.6365771 
H    -1.8941906    0.2368951    3.5354560 
H     1.7029502    1.8504258    5.3197417 
H     1.2189152    0.6021493    7.4191689 
Fe   -3.1022440   -3.3243692    0.4727326 
C    -1.5851939   -2.0864246    1.0748767 
C    -1.7040418   -2.0822910   -0.3743437 
C    -3.0510119   -1.6789661   -0.6958803 
H    -3.4512711   -1.5831062   -1.7058955 
C    -3.7514206   -1.4078140    0.5234478 
H    -4.7953828   -1.1006250    0.6061266 
C    -2.8546391   -1.6598042    1.6121717 
H    -3.0972896   -1.5918280    2.6747225 
C    -2.6717299   -5.3383554    0.4391961 
H    -1.6939114   -5.8188111    0.3792240 
C    -3.5051997   -4.9768944   -0.6728115 
H    -3.2639788   -5.1023508   -1.7300430 
C    -4.7139713   -4.4076492   -0.1530370 
H    -5.5408173   -4.0098706   -0.7443089 
C    -4.6274621   -4.4136112    1.2796547 
H    -5.3802657   -4.0260886    1.9687457 
C    -3.3647860   -4.9868959    1.6461089 
H    -3.0062229   -5.1358259    2.6663899 
C    -0.6096622   -2.2998436   -1.3620081 
C     0.1505302   -1.2060688   -1.8710247 
C     1.1875001   -1.4514402   -2.7932376 
H     1.7980859   -0.6202579   -3.1575073 
C     1.4689924   -2.7536976   -3.2290325 
H     2.2873170   -2.9255900   -3.9349068 
C     0.7181272   -3.8309054   -2.7424129 
H     0.9418616   -4.8515250   -3.0670905 
C    -0.3077835   -3.5966746   -1.8180671 
H    -0.9029794   -4.4249079   -1.4268629 
C     0.9782298    1.6051638   -2.1757596 
C     0.9353073    1.8009674   -3.5710330 
H     0.1919343    1.2818029   -4.1819732 
C     1.8408926    2.6604989   -4.2110814 
C     2.7926007    3.3500142   -3.4214621 
C     2.8229776    3.2278929   -2.0146079 
C     1.9216243    2.3299474   -1.4225636 
H     1.9319228    2.2158464   -0.3303605 
C    -1.8714266    0.8478294   -1.9354214 
C    -2.8637201    1.3403783   -1.0711524 
H    -2.6203612    1.5166870   -0.0189556 
C    -4.1791059    1.5376149   -1.5145389 
C    -4.4754194    1.2563725   -2.8672180 
C    -3.5084589    0.7241762   -3.7533555 
C    -2.2102824    0.5126500   -3.2604343 
H    -1.4735451    0.0338159   -3.9149375 
C     2.2987540   -1.7014352    0.4042745 
C     3.1043336   -0.7023450   -0.1736650 
H     2.9079556    0.3523640    0.0340758 
C     4.1521178   -1.0412757   -1.0422870 
C     4.4044850   -2.3791272   -1.3635843 
H     5.2099589   -2.6405615   -2.0550308 
C     3.5914945   -3.3734346   -0.8035998 
C     2.5594095   -3.0460812    0.0841066 
H     1.9588333   -3.8534183    0.4944784 
C     1.9993289   -1.1256098    3.1587827 
C     1.7083837   -1.9169975    4.2836081 
H     0.8585448   -2.6012312    4.3001326 
C     2.4994259   -1.8203706    5.4372769 
C     3.5774596   -0.9276086    5.4979444 
H     4.1796006   -0.8404688    6.4060632 
C     3.8501825   -0.1204273    4.3863731 
C     3.0756915   -0.2226710    3.2243394 
H     3.3147403    0.4240996    2.3743513 
C    -0.3636848   -2.3878785    1.9211270 
H    -0.6343035   -2.0717491    2.9465238 
C     0.0403459   -3.8737181    1.9655421 
H    -0.7405535   -4.4299928    2.5056703 
H     0.0983099   -4.2908692    0.9498203 
H     1.0012041   -4.0376913    2.4822660 
C     2.1922357   -2.6881822    6.6404007 
F     2.2751912   -1.9772145    7.7913216 
F     0.9449486   -3.2150037    6.5744707 
F     3.0630128   -3.7165738    6.7410061 
C     4.9039903    0.9619912    4.4600709 
F     5.5464246    1.1148476    3.2788542 
F     4.3222813    2.1626489    4.7478473 
F     5.8230439    0.7203699    5.4131936 
C     4.9531228    0.0527718   -1.7096162 
F     5.1028740    1.1275758   -0.8953129 
F     4.3326161    0.4970551   -2.8400433 
F     6.1815081   -0.3653397   -2.0734874 
C     3.8297371   -4.8175048   -1.1924164 
F     4.9895003   -5.2865419   -0.6861259 
F     2.8325068   -5.6268897   -0.7610555 
F     3.9001794   -4.9453530   -2.5426645 
C     1.8189206    2.8719112   -5.7058119 
H     0.9262703    2.4129759   -6.1603918 
H     1.8357842    3.9481003   -5.9470850 
H     2.7115058    2.4262991   -6.1820435 
C     3.7789889    4.0512898   -1.1856607 
H     4.7596555    3.5529587   -1.0908058 
H     3.9451983    5.0349516   -1.6541654 
H     3.3866893    4.2016714   -0.1658190 
C    -5.2857910    1.9622755   -0.5800862 
H    -6.1119879    1.2301003   -0.6062175 
H    -4.9167003    2.0519275    0.4538442 
H    -5.7151925    2.9355628   -0.8740996 
C    -3.8843542    0.3604176   -5.1706511 
H    -3.2210904   -0.4258082   -5.5673411 
H    -4.9282916    0.0094850   -5.2168190 
H    -3.8001424    1.2344425   -5.8438180 
O     3.6573754    4.2092638   -4.0551366 
O    -5.7772113    1.4135140   -3.2907532 
C     4.9776892    3.6908980   -4.2912077 
H     5.5271634    4.4796982   -4.8253231 
H     5.4961908    3.4539663   -3.3439223 
H     4.9370125    2.7764219   -4.9120750 
C    -6.0666819    2.6572435   -3.9450610 
H    -5.5058925    2.7558506   -4.8936015 
H    -7.1461001    2.6527260   -4.1575295 
H    -5.8199408    3.5170789   -3.2928017 
