124
Energy =
C     1.9511874    2.0647542    1.5978607 
C     2.2706150    2.2375664    0.2234939 
C     1.3787687    2.8304860   -0.7023346 
H     3.1844619    1.7661527   -0.1594647 
Pd    0.4459421    0.9948550    0.2982408 
P    -0.9161660    0.1164128   -1.3679341 
P    -0.5078920   -0.5093381    1.8179937 
H     1.2590360    2.7848440    2.0579887 
H     0.5982920    3.4936578   -0.2987886 
C     4.4835891   -0.0354442    4.3822301 
C     4.5403237   -0.3480212    3.0136082 
C     3.7272372    0.3316536    2.1007784 
C     2.8366295    1.3436819    2.5338436 
C     2.8075647    1.6587127    3.9092888 
C     3.6172700    0.9748349    4.8238958 
H     5.1159840   -0.5725858    5.0967209 
H     5.2171319   -1.1320169    2.6572850 
H     3.7647557    0.0537896    1.0417106 
H     2.1414254    2.4514120    4.2615327 
H     3.5685360    1.2324278    5.8868590 
C     2.2532294    3.5372127   -4.8542447 
C     1.1972246    4.2037736   -4.2177805 
C     0.9036045    3.9368371   -2.8758187 
C     1.6685672    3.0088347   -2.1333922 
C     2.7184616    2.3283419   -2.7977440 
C     3.0075866    2.5928041   -4.1389593 
H     2.4749413    3.7369042   -5.9069085 
H     0.5949365    4.9296613   -4.7725713 
H     0.0790487    4.4650455   -2.3842855 
H     3.3241558    1.5910654   -2.2617615 
H     3.8240990    2.0567237   -4.6334172 
Fe   -4.0612646    1.3516066   -0.2831989 
C    -2.6464618   -0.0019571   -0.8271444 
C    -3.1137707   -0.2399648    0.5400496 
C    -4.5336925   -0.4832486    0.4547127 
C    -4.9495803   -0.3794194   -0.9112783 
C    -3.7987437   -0.0848927   -1.7044519 
C    -5.0866943    2.5824917    0.9733983 
C    -3.6912321    2.9193812    0.9722627 
C    -3.3168948    3.2637992   -0.3682261 
C    -4.4818477    3.1381458   -1.2004303 
C    -5.5742336    2.7146603   -0.3717048 
C    -2.3648958   -0.1850572    1.8661187 
H    -5.1951681   -0.6789344    1.2985003 
H    -5.9723526   -0.4824975   -1.2775551 
H    -3.7762758    0.0477012   -2.7872493 
H    -5.6707259    2.2636790    1.8387466 
H    -3.0277418    2.9147038    1.8401831 
H    -2.3165741    3.5549040   -0.6954213 
H    -4.5340590    3.3255084   -2.2744822 
H    -6.5932306    2.5147853   -0.7073952 
H    -2.2746973    0.8858990    2.1197969 
C    -3.1304599   -0.8422237    3.0303707 
H    -4.0521030   -0.2695190    3.2313644 
H    -3.4144436   -1.8800388    2.8055914 
H    -2.5277009   -0.8319028    3.9516565 
C     1.4936260   -4.6571488    1.0962256 
C     2.1884826   -3.4731385    1.4003690 
C     1.4897209   -2.2839082    1.6050619 
C     0.0777450   -2.2278705    1.5381693 
C    -0.6449845   -3.4073989    1.2268580 
C     0.0924925   -4.5892356    1.0146879 
H     3.2821323   -3.4718291    1.4547523 
H     2.0508865   -1.3706597    1.8283090 
H    -0.4636695   -5.4980716    0.7553457 
C     0.3325802    0.5338261    6.2583872 
C    -0.2427835    1.4965261    5.4025932 
C    -0.4392503    1.1548321    4.0567464 
C    -0.1077394   -0.1308404    3.5763554 
C     0.4630933   -1.0685595    4.4484222 
C     0.7071399   -0.7383291    5.7985232 
H     0.5042461    0.7922217    7.3103914 
H    -0.8537166    1.9068158    3.3728431 
H     0.7245830   -2.0678190    4.0868617 
C     2.2175340   -5.9587629    0.8459617 
H     1.8033926   -6.4792406   -0.0356688 
H     3.2946459   -5.7959127    0.6787222 
H     2.1077954   -6.6429390    1.7080147 
C    -2.1481239   -3.4873187    1.1098045 
H    -2.4365133   -4.3294007    0.4606518 
H    -2.6094975   -3.6631068    2.0990559 
H    -2.5869618   -2.5736285    0.6826072 
C    -0.5975690    2.8722532    5.9214642 
H    -1.2532657    2.8066430    6.8076413 
H     0.3100246    3.4227165    6.2319944 
H    -1.1139797    3.4751772    5.1561905 
C     1.3916532   -1.7328115    6.7079181 
H     1.0160681   -2.7570668    6.5420327 
H     2.4790158   -1.7451958    6.5025728 
H     1.2521399   -1.4773727    7.7709824 
C     0.1728526   -4.3429154   -2.3412297 
C    -1.1417020   -3.9129818   -2.3264413 
C    -1.4461838   -2.5624947   -2.0248973 
C    -0.4418295   -1.6396127   -1.7429062 
H     0.4141769   -5.3879721   -2.5641096 
H    -1.9570810   -4.6111991   -2.5408109 
H    -2.4945209   -2.2519012   -2.0040687 
C     0.9378317   -2.0540523   -1.7771464 
C     1.2376663   -3.4353452   -2.0740775 
C     2.5977597   -3.8636159   -2.1012304 
C     3.6346729   -2.9762095   -1.8663210 
C     3.3460356   -1.6132509   -1.6001851 
C     2.0341628   -1.1699120   -1.5584306 
H     2.8091403   -4.9160649   -2.3189470 
H     4.6736298   -3.3199952   -1.8955451 
H     4.1662728   -0.9064452   -1.4325765 
H     1.8222374   -0.1120083   -1.3589338 
C    -0.0420969    0.4854641   -4.0035988 
C    -0.9507178    0.8902801   -3.0289258 
C    -1.8634957    1.9486759   -3.3176214 
C    -1.8773891    2.5472990   -4.5635530 
H     0.6682783   -0.3235939   -3.8088909 
H    -2.5762033    2.2476600   -2.5497740 
H    -2.5959809    3.3465974   -4.7777522 
C    -0.9575425    2.1555338   -5.5788214 
C    -0.0195863    1.1014628   -5.2857810 
C     0.9173401    0.7102261   -6.2869199 
C     0.9336607    1.3376433   -7.5218731 
C     0.0118897    2.3812423   -7.8090203 
C    -0.9158430    2.7793767   -6.8589720 
H     1.6295521   -0.0905330   -6.0596309 
H     1.6581959    1.0317099   -8.2837285 
H     0.0359871    2.8688714   -8.7891319 
H    -1.6278161    3.5819651   -7.0811356 
