98
Energy =
C    -1.1559851   -1.6626115   -2.2573089 
C    -0.6936160   -0.4992659   -2.9225612 
C     0.6887760   -0.2095321   -3.0186712 
H    -1.4248056    0.2332053   -3.2849999 
Pd    0.0047785   -0.2943831   -0.8302638 
P     1.6711493    1.1602659    0.0014900 
P    -0.9702713   -1.0821228    1.1782970 
H    -0.4454637   -2.4978250   -2.1628684 
H     1.3788528   -1.0576128   -2.9019723 
C    -5.2858557   -2.8748844   -2.1018863 
C    -4.2562964   -3.8241164   -2.0196705 
C    -2.9178776   -3.4140516   -2.0637111 
C    -2.5785040   -2.0464877   -2.1857168 
C    -3.6289461   -1.1034473   -2.2792934 
C    -4.9657223   -1.5133263   -2.2381373 
H    -6.3327593   -3.1925980   -2.0662963 
H    -4.4954138   -4.8883160   -1.9261645 
H    -2.1198064   -4.1638865   -2.0172600 
H    -3.3983650   -0.0374382   -2.3749953 
H    -5.7639699   -0.7672378   -2.3089129 
C     2.4366283    3.1883237   -5.0003447 
C     1.0685508    3.1988585   -4.6785716 
C     0.4835361    2.0982328   -4.0448500 
C     1.2535829    0.9579958   -3.7151433 
C     2.6222401    0.9522260   -4.0711049 
C     3.2094332    2.0561634   -4.7016814 
H     2.8929537    4.0536035   -5.4915314 
H     0.4560648    4.0736686   -4.9199235 
H    -0.5794077    2.1338581   -3.7872414 
H     3.2297161    0.0668366   -3.8543217 
H     4.2716152    2.0300625   -4.9658472 
Fe    1.1330063    0.4799017    3.2474432 
C     0.1316938   -1.1364089    2.6244155 
C    -0.1937474   -0.8458726    4.0076417 
H    -1.1819822   -0.6129757    4.4069489 
C     1.0192014   -0.8930298    4.7697613 
H     1.1074321   -0.6881924    5.8381506 
C     2.0965620   -1.2177652    3.8820853 
H     3.1494713   -1.3037630    4.1558012 
C     1.5569494   -1.3771730    2.5645097 
C     1.5121216    1.7233863    1.7271262 
C     2.5386805    1.8472251    2.7454687 
H     3.6057921    1.6582670    2.6207800 
C     1.9070749    2.2378804    3.9714805 
H     2.4114714    2.3809339    4.9286739 
C     0.5012487    2.3739315    3.7299640 
H    -0.2549016    2.6400289    4.4705941 
C     0.2543156    2.0696118    2.3524758 
H     2.1197126   -1.6171462    1.6612322 
H    -0.7152932    2.0850688    1.8540091 
C     2.0883329    2.7786056   -0.8706627 
C     3.5843788    2.9577065   -0.5369550 
C     4.2788078    1.6005886   -0.7327308 
C     3.4332714    0.4793691   -0.0660165 
H     1.9834789    2.5741010   -1.9504033 
H     4.0313581    3.7364957   -1.1807692 
H     3.6899604    3.3037069    0.5090601 
H     4.3504810    1.3899700   -1.8155024 
H     5.3074796    1.6075000   -0.3332591 
H     3.7223221    0.3641244    0.9937827 
C    -1.8126783   -2.7805101    1.1441179 
C    -3.3116052   -2.4415539    1.3416229 
C    -3.4189865   -1.2594245    2.3194804 
C    -2.4742235   -0.1414061    1.8172683 
H    -1.6506777   -3.1957462    0.1369145 
H    -3.7565103   -2.1631422    0.3701501 
H    -3.8704136   -3.3220889    1.7027759 
H    -4.4575538   -0.8921138    2.3992907 
H    -3.1170419   -1.5815561    3.3328969 
H    -2.1132652    0.4842880    2.6516803 
C    -3.1013409    0.7771791    0.7467213 
H    -2.2932065    1.3038770    0.2028755 
H    -3.6148357    0.1558147   -0.0077993 
C    -4.0763566    1.8034460    1.3375332 
H    -4.5134823    2.4333934    0.5438963 
H    -4.9098220    1.3151631    1.8723547 
H    -3.5633634    2.4701558    2.0548974 
C    -1.2377673   -3.7768749    2.1742678 
H    -0.1349267   -3.7826028    2.1005292 
H    -1.4678899   -3.4324676    3.1996215 
C    -1.7616755   -5.2052960    1.9662120 
H    -1.5008293   -5.5802617    0.9598247 
H    -1.3215465   -5.8927049    2.7085157 
H    -2.8593598   -5.2614529    2.0705613 
C     1.1965216    3.9668894   -0.4806951 
H     1.6063589    4.8674474   -0.9763976 
H     1.2891210    4.1474017    0.6068344 
C    -0.2789656    3.8031783   -0.8651282 
H    -0.7044369    2.8737957   -0.4420586 
H    -0.8828136    4.6495897   -0.4965874 
H    -0.3987384    3.7490490   -1.9597585 
C     3.5692315   -0.8980395   -0.7420276 
H     3.3258902   -0.7971641   -1.8143978 
H     2.8156571   -1.5936983   -0.3253891 
C     4.9721048   -1.5002451   -0.5850089 
H     5.0316392   -2.4921889   -1.0645356 
H     5.7418103   -0.8575423   -1.0467964 
H     5.2324859   -1.6228211    0.4820961 
