112
Energy =
C     2.6174994   -0.0677200   -2.5999089 
C     1.8533095    1.1217836   -2.7577448 
C     1.8697416    2.1500170   -1.7838216 
H     1.1211311    1.1805691   -3.5721811 
Pd    1.1600193    0.1858306   -0.8876040 
P    -0.6212549    0.9501156    0.4595618 
P     1.2049402   -1.9727648   -0.0100384 
H     3.5308478   -0.0100175   -1.9913721 
H     2.7505737    2.1980432   -1.1251593 
C     2.4288903   -3.4955239   -5.2076082 
C     1.5152052   -2.4417391   -5.3769324 
C     1.5712353   -1.3183582   -4.5455779 
C     2.5492017   -1.2160063   -3.5257999 
C     3.4771904   -2.2733515   -3.3866207 
C     3.4120301   -3.4023468   -4.2118363 
H     2.3789780   -4.3771218   -5.8547223 
H     0.7531357   -2.4969691   -6.1615510 
H     0.8367490   -0.5189583   -4.6896897 
H     4.2518864   -2.2102073   -2.6160671 
H     4.1367437   -4.2116520   -4.0756334 
C    -0.4455130    5.7797340   -1.7776696 
C     0.7107063    5.6605269   -0.9914901 
C     1.4611160    4.4792237   -1.0208086 
C     1.0755703    3.3894655   -1.8353834 
C    -0.0731542    3.5391012   -2.6489338 
C    -0.8273922    4.7167457   -2.6134064 
H    -1.0381824    6.6996825   -1.7518992 
H     1.0289911    6.4909477   -0.3528738 
H     2.3594454    4.3905650   -0.4001828 
H    -0.3854062    2.7282050   -3.3151961 
H    -1.7172504    4.8086783   -3.2447592 
Fe   -1.5621514   -0.7063062    3.6616398 
C    -1.2809561   -0.2669553    1.6531085 
C    -0.6339933   -1.5206101    2.0254610 
C    -1.6529937   -2.3969952    2.5420536 
C    -2.9095221   -1.7107797    2.5200170 
C    -2.6835157   -0.3964584    2.0018588 
C    -2.6412418   -0.4746656    5.3790042 
C    -1.6396594   -1.4894753    5.5441867 
C    -0.3576666   -0.8884338    5.3204201 
C    -0.5657146    0.4953668    5.0073695 
C    -1.9787176    0.7520423    5.0494993 
C     0.8156321   -1.9035171    1.8367758 
H    -1.4834960   -3.4042791    2.9276828 
H    -3.8616116   -2.1026988    2.8823767 
H    -3.4426351    0.3754453    1.8698622 
H    -3.7198607   -0.6174459    5.4669433 
H    -1.8231054   -2.5394765    5.7796045 
H     0.6027926   -1.4021667    5.3863480 
H     0.2121242    1.2284559    4.7897926 
H    -2.4678188    1.7108061    4.8729010 
H    -1.3234879    1.5554372   -1.6952835 
C    -3.9643891    2.1375184   -1.9761354 
C    -3.1325714    2.0516787   -0.6798244 
C    -1.9320678    1.1064177   -0.8859969 
C    -2.3826958   -0.2906157   -1.3657520 
C    -3.2144585   -0.1865524   -2.6548496 
C    -4.4167304    0.7524520   -2.4660057 
H    -3.3492503    2.6207186   -2.7612709 
H    -4.8360871    2.7957164   -1.8106187 
H    -3.7748117    1.6833152    0.1416345 
H    -2.7846399    3.0618311   -0.4033971 
H    -1.5034059   -0.9372383   -1.5288893 
H    -2.9842200   -0.7765035   -0.5755168 
H    -2.5711496    0.1974757   -3.4724599 
H    -3.5485623   -1.1940670   -2.9618421 
H    -5.1083686    0.3102776   -1.7219409 
H    -4.9856790    0.8475599   -3.4081038 
H    -0.4542081    3.3282072    0.4331453 
C     1.0998358    4.0850372    2.6739436 
C     0.9059029    2.7122897    2.0069155 
C    -0.4541371    2.6158037    1.2811293 
C    -1.6101605    2.9517464    2.2444577 
C    -1.4074503    4.3274426    2.9058267 
C    -0.0563453    4.4145956    3.6314641 
H     1.1511614    4.8625784    1.8882352 
H     2.0671283    4.1057778    3.2079386 
H     0.9472966    1.9212255    2.7795390 
H     1.7259664    2.5040430    1.2951436 
H    -2.5794317    2.9295669    1.7222682 
H    -1.6476585    2.1608177    3.0115611 
H    -1.4580054    5.1147696    2.1280826 
H    -2.2381819    4.5235958    3.6081020 
H    -0.0491496    3.7003909    4.4786739 
H     0.0828154    5.4196125    4.0678430 
H     0.9548605   -2.9250061    2.2323488 
C     1.8314670   -0.9682315    2.5176469 
H     1.5213883   -0.7957951    3.5575501 
H     2.8411143   -1.4088478    2.5169072 
H     1.8751826    0.0112922    2.0109944 
C    -1.5553737   -5.1341652   -1.9951758 
C    -1.2692281   -5.2458096   -0.6256568 
C    -0.4469577   -4.3006212    0.0033008 
C     0.0868125   -3.2251582   -0.7360206 
C    -0.1985057   -3.1246401   -2.1123729 
C    -1.0121986   -4.0761978   -2.7394850 
H    -2.1974631   -5.8758298   -2.4815410 
H    -1.6838604   -6.0756017   -0.0438772 
H    -0.2176142   -4.4149996    1.0661851 
H     0.2305022   -2.3052065   -2.6967018 
H    -1.2174967   -3.9884347   -3.8112777 
C     5.4847297   -3.7880197   -0.2937969 
C     5.3005292   -2.4382631    0.0496140 
C     4.0072243   -1.9084978    0.1362527 
C     2.8806189   -2.7267759   -0.1021584 
C     3.0731901   -4.0785378   -0.4487546 
C     4.3711642   -4.6027456   -0.5437671 
H     6.4959086   -4.2002903   -0.3721295 
H     6.1663575   -1.7952785    0.2385854 
H     3.8696814   -0.8474527    0.3748159 
H     2.2122945   -4.7191452   -0.6629525 
H     4.5099964   -5.6530139   -0.8205455 
