124
Energy =
C     3.1685480    0.2589814    1.3525848 
C     3.4623246    0.1046987   -0.0348794 
C     3.0260439    1.0742813   -0.9717368 
H     3.9087135   -0.8346094   -0.3853213 
Pd    1.2795992    0.1236464    0.1412762 
P    -0.2920937    0.1983896   -1.5838453 
P    -0.1837005   -0.3434146    1.9040687 
H     3.0416324    1.2873690    1.7228736 
H     2.8090650    2.0744406   -0.5664887 
C     4.5235567   -2.5560014    4.3047069 
C     4.5272109   -1.1804687    4.5771951 
C     4.0444476   -0.2750127    3.6243463 
C     3.5730071   -0.7273274    2.3719533 
C     3.5482612   -2.1187364    2.1221193 
C     4.0201049   -3.0220370    3.0786188 
H     4.9001332   -3.2655709    5.0488386 
H     4.9074005   -0.8108169    5.5352600 
H     4.0541651    0.7998544    3.8377979 
H     3.1349317   -2.4902328    1.1771142 
H     3.9859783   -4.0970365    2.8743410 
C     3.7399019    1.1467185   -5.2069478 
C     3.2372457    2.2755722   -4.5436277 
C     2.9941247    2.2264831   -3.1664394 
C     3.2486313    1.0498925   -2.4238771 
C     3.7312420   -0.0880392   -3.1114401 
C     3.9806596   -0.0340865   -4.4853455 
H     3.9368273    1.1819671   -6.2833285 
H     3.0403064    3.1987014   -5.0985272 
H     2.6081680    3.1130656   -2.6511904 
H     3.9104795   -1.0231824   -2.5721350 
H     4.3574765   -0.9236403   -4.9998233 
Fe   -3.7681327   -0.8604559   -1.2098437 
C    -1.7243901   -0.8864582   -1.2473427 
C    -2.2441775   -1.2474390    0.0684730 
C    -3.0769341   -2.4112242   -0.1110159 
C    -3.0923557   -2.7618074   -1.4999657 
C    -2.2750596   -1.8244825   -2.2040913 
C    -5.0663361    0.3725747   -0.2120174 
C    -4.5359338    1.0388906   -1.3633541 
C    -4.8694574    0.2567211   -2.5229714 
C    -5.6084180   -0.8923766   -2.0835078 
C    -5.7290285   -0.8215483   -0.6543316 
C    -2.0150412   -0.5171091    1.3702683 
H    -3.6380049   -2.9222717    0.6721980 
H    -3.6612924   -3.5788618   -1.9470276 
H    -2.0678980   -1.8224099   -3.2751715 
H    -4.9740528    0.7134527    0.8209459 
H    -3.9751462    1.9738912   -1.3551035 
H    -4.6215712    0.4908435   -3.5593338 
H    -5.9933980   -1.6905924   -2.7205892 
H    -6.2185040   -1.5592810   -0.0156115 
H    -2.2323751    0.5520434    1.1885555 
C    -2.9085182   -1.0332456    2.5070340 
H    -3.9595326   -1.0530881    2.1714870 
H    -2.6219945   -2.0528642    2.8137235 
H    -2.8493261   -0.3794132    3.3893707 
C     1.1558784   -3.7035284    4.8845014 
C     1.2941113   -2.3375518    5.1972749 
C     0.8743082   -1.3530374    4.3034674 
C     0.2820526   -1.6911013    3.0632706 
C     0.1918425   -3.0608722    2.7038478 
C     0.6144117   -4.0312434    3.6321389 
H     1.7539383   -2.0375025    6.1448630 
H     1.0248897   -0.3042911    4.5697367 
H     0.5323293   -5.0883489    3.3504827 
C    -0.6503424    3.6557854    4.2182197 
C    -0.0245364    3.6331882    2.9615875 
C     0.1428268    2.3870576    2.3276603 
C    -0.3145201    1.1953907    2.9154118 
C    -0.9440633    1.2523708    4.1785200 
C    -1.1121456    2.4784866    4.8438589 
H    -0.7813830    4.6163203    4.7314217 
H     0.6337649    2.3367744    1.3475809 
H    -1.2902834    0.3353678    4.6659149 
C     1.6252909   -4.7682303    5.8468511 
H     1.1585392   -4.6404132    6.8397159 
H     1.3901651   -5.7814516    5.4828557 
H     2.7194012   -4.7015300    5.9929289 
C    -0.3181737   -3.5270613    1.3620299 
H    -0.2803701   -2.7311138    0.6017879 
H     0.2786514   -4.3775092    0.9918550 
H    -1.3663525   -3.8685384    1.4202612 
C     0.4365327    4.9023285    2.2791417 
H    -0.2659198    5.1826047    1.4714974 
H     0.4923108    5.7472827    2.9842891 
H     1.4311377    4.7712436    1.8174298 
C    -1.7727263    2.5432487    6.2033294 
H    -1.0883681    2.9782737    6.9538523 
H    -2.6722864    3.1843283    6.1749231 
H    -2.0755127    1.5437592    6.5555954 
C     1.2424842   -1.7095367   -5.5786011 
C     0.7170454   -0.4315155   -5.5733495 
C     0.2872073    0.1628869   -4.3591856 
C     0.3646671   -0.5258499   -3.1525566 
H     1.5701348   -2.1733851   -6.5152054 
H     0.6301819    0.1375747   -6.5041719 
H    -0.1137886    1.1789677   -4.3877557 
C     0.9689057   -1.8361085   -3.1195439 
C     1.4042043   -2.4313014   -4.3602265 
C     2.0212019   -3.7169372   -4.3379444 
C     2.2242599   -4.3940340   -3.1466420 
C     1.8038103   -3.8089033   -1.9244933 
C     1.1839535   -2.5693048   -1.9177109 
H     2.3444946   -4.1581355   -5.2871695 
H     2.7077015   -5.3762308   -3.1449731 
H     1.9675270   -4.3397987   -0.9807113 
H     0.8739669   -2.1254056   -0.9634093 
C    -1.9074641    2.0623767   -2.9293752 
C    -0.8677245    1.8795625   -2.0226988 
C    -0.2208434    3.0166423   -1.4560164 
C    -0.6237638    4.2972612   -1.7923756 
H    -2.4114380    1.1909660   -3.3590529 
H     0.5991454    2.8649922   -0.7479357 
H    -0.1237663    5.1646660   -1.3473324 
C    -1.6882712    4.5129443   -2.7164547 
C    -2.3416532    3.3659950   -3.3011211 
C    -3.4069489    3.5730015   -4.2278940 
C    -3.8119128    4.8542309   -4.5617119 
C    -3.1689259    5.9838428   -3.9846561 
C    -2.1304276    5.8175872   -3.0827859 
H    -3.9006019    2.7022571   -4.6726400 
H    -4.6306490    5.0031538   -5.2730779 
H    -3.5000809    6.9909017   -4.2583071 
H    -1.6355440    6.6888133   -2.6399354 
