112
Energy =
C     1.3379264    0.6626431   -2.9131495 
C     0.5828309    1.8551114   -2.7568006 
C     0.9453173    2.8263878   -1.7878345 
H    -0.3684384    1.9664480   -3.2917397 
Pd    0.5277345    0.8200584   -0.8067193 
P     0.1959982    1.6320067    1.3415479 
P     0.4097138   -1.4420383   -0.2460559 
H     2.3845029    0.6959878   -2.5744220 
H     2.0009281    2.8581237   -1.4782164 
C     0.5735936   -2.5609555   -5.6631025 
C     1.7775393   -2.4960239   -4.9448083 
C     2.0130125   -1.4324002   -4.0657276 
C     1.0474243   -0.4160820   -3.8729874 
C    -0.1597215   -0.4950578   -4.6064974 
C    -0.3892534   -1.5520714   -5.4936291 
H     0.3883890   -3.3879063   -6.3558759 
H     2.5390052   -3.2715425   -5.0774082 
H     2.9612461   -1.3780336   -3.5185650 
H    -0.9317619    0.2703707   -4.4792180 
H    -1.3277552   -1.5922614   -6.0560492 
C    -1.1867230    6.4769577   -0.9828747 
C    -1.8766025    5.3740323   -1.5147021 
C    -1.1991579    4.1814085   -1.7821940 
C     0.1853314    4.0600808   -1.5190142 
C     0.8652327    5.1773247   -0.9849996 
C     0.1873782    6.3747403   -0.7240110 
H    -1.7197333    7.4104447   -0.7751185 
H    -2.9506355    5.4446546   -1.7155717 
H    -1.7555839    3.3288394   -2.1854340 
H     1.9376518    5.1011948   -0.7766772 
H     0.7357745    7.2293273   -0.3139997 
Fe   -1.9282476   -1.7069596    2.5388231 
C    -0.2019664   -1.8108535    1.4252448 
C    -0.0212941   -0.9732949    2.6108024 
C    -0.3124689   -1.8002422    3.7592631 
C    -0.6786196   -3.1088133    3.3129083 
C    -0.6321809   -3.1172807    1.8850341 
C    -3.7621030   -2.2175173    1.7896189 
C    -3.6987772   -2.4617038    3.2019190 
C    -3.4072150   -1.2163514    3.8547767 
C    -3.2951060   -0.2017375    2.8482716 
C    -3.5100692   -0.8202915    1.5730810 
C     0.5958491    0.4063477    2.7272241 
H    -0.2874848   -1.4799947    4.8008283 
H    -0.9843384   -3.9402743    3.9503799 
H    -0.8711243   -3.9687613    1.2490191 
H    -3.9663731   -2.9660746    1.0218773 
H    -3.8255572   -3.4286405    3.6921650 
H    -3.2755878   -1.0731383    4.9289783 
H    -3.0885062    0.8526492    3.0239590 
H    -3.4884822   -0.3148677    0.6089761 
H     2.2545684   -2.4316101   -1.3815179 
C     3.7222950   -4.0819465    0.3019989 
C     2.3123523   -3.4978163    0.5149968 
C     2.1308059   -2.2011721   -0.3035488 
C     3.2145661   -1.1748920    0.0954007 
C     4.6278812   -1.7485514   -0.1080994 
C     4.8158204   -3.0643991    0.6644481 
H     3.8342753   -4.3832157   -0.7584361 
H     3.8355901   -5.0008105    0.9045939 
H     2.1669563   -3.2646624    1.5865604 
H     1.5478823   -4.2463598    0.2513983 
H     3.0870652   -0.2411477   -0.4843482 
H     3.0768306   -0.9092148    1.1626331 
H     4.7872360   -1.9291895   -1.1900661 
H     5.3828204   -1.0035547    0.2021281 
H     4.7713105   -2.8557155    1.7516928 
H     5.8167412   -3.4863963    0.4646134 
H    -0.1619406   -1.9706575   -2.4554118 
C    -2.9035068   -2.4915218   -2.6008956 
C    -2.0673353   -1.9063224   -1.4506111 
C    -0.5982349   -2.3671841   -1.5196445 
C    -0.4767111   -3.9042016   -1.5909338 
C    -1.3131987   -4.4536449   -2.7631981 
C    -2.7843144   -4.0226319   -2.6578519 
H    -2.5502311   -2.0639700   -3.5584392 
H    -3.9594504   -2.1871107   -2.4828735 
H    -2.4832954   -2.2236668   -0.4797988 
H    -2.1074051   -0.7997395   -1.4672386 
H     0.5785266   -4.1995438   -1.7199204 
H    -0.8340501   -4.3663773   -0.6530088 
H    -0.8864660   -4.0783440   -3.7128488 
H    -1.2311999   -5.5551936   -2.7867766 
H    -3.2300113   -4.4605439   -1.7420839 
H    -3.3629177   -4.4206778   -3.5105073 
H     1.6840817    0.2818102    2.5513926 
C     0.4173381    1.0222327    4.1253677 
H     0.9453847    0.4128699    4.8776716 
H     0.8443276    2.0377998    4.1689027 
H    -0.6492095    1.0628110    4.4017638 
C     3.5029086    4.8238402    2.1325512 
C     3.8278772    3.5023160    1.7826077 
C     2.8117276    2.5667610    1.5571155 
C     1.4520931    2.9353149    1.6847819 
C     1.1354486    4.2697073    2.0025898 
C     2.1587289    5.2027554    2.2352998 
H     4.2971883    5.5552864    2.3132477 
H     4.8756985    3.2003459    1.6836887 
H     3.0780114    1.5438583    1.2675048 
H     0.0942473    4.5976514    2.0472353 
H     1.8953134    6.2362126    2.4830426 
C    -4.0313896    3.4938514    1.8509557 
C    -3.0903988    3.6705653    2.8782286 
C    -1.8064460    3.1205948    2.7645906 
C    -1.4497377    2.3838685    1.6117201 
C    -2.4004287    2.2202941    0.5845497 
C    -3.6843991    2.7675108    0.7034870 
H    -5.0337540    3.9233228    1.9472636 
H    -3.3575015    4.2385626    3.7752290 
H    -1.0896037    3.2705761    3.5753016 
H    -2.1188780    1.6499593   -0.3085794 
H    -4.4133945    2.6273373   -0.1012103 
