132
Energy =
C     2.0616150   -2.4718459    0.0189450 
C     1.8876098   -2.5236128    1.4248541 
C     0.6953235   -3.0240039    2.0128278 
H     2.6465322   -2.0506215    2.0611641 
Pd    0.2720489   -1.2372297    0.6616395 
P    -1.7031171   -0.3759361    1.5758351 
P     0.3692594    0.2223559   -1.1595965 
H     1.4813650   -3.1793236   -0.5931355 
H     0.1045113   -3.7283808    1.4084725 
C     5.6560745   -1.0137572   -1.8449921 
C     4.9853997   -2.1323102   -2.3616336 
C     3.7972017   -2.5778835   -1.7688895 
C     3.2823568   -1.9396129   -0.6191579 
C     3.9765261   -0.8233087   -0.1004523 
C     5.1425739   -0.3558944   -0.7145611 
H     6.5757292   -0.6556951   -2.3193317 
H     5.3821310   -2.6540830   -3.2380180 
H     3.2652667   -3.4365644   -2.1922800 
H     3.5825589   -0.2991399    0.7755705 
H     5.6519457    0.5253067   -0.3106996 
C    -0.0010538   -3.3750761    6.2533601 
C    -0.7739316   -4.1023193    5.3356655 
C    -0.5347724   -3.9793866    3.9616633 
C     0.4690869   -3.1133612    3.4676123 
C     1.2372737   -2.3852231    4.4070688 
C     1.0121825   -2.5248837    5.7806666 
H    -0.1790603   -3.4758712    7.3287050 
H    -1.5571427   -4.7796502    5.6917151 
H    -1.1243211   -4.5736128    3.2559435 
H     2.0155057   -1.6961103    4.0631408 
H     1.6288852   -1.9629710    6.4898042 
Fe   -1.8404507    2.9658276   -1.7847031 
C    -1.2190962    1.0413780   -1.5326461 
C    -2.2239347    1.4087175   -0.5482930 
C    -3.4125021    1.7896216   -1.2732892 
C    -3.1461819    1.6821472   -2.6782394 
C    -1.7965493    1.2348948   -2.8454052 
C    -1.6896302    4.6621790   -0.6445504 
C    -0.4089383    4.2992971   -1.1750029 
C    -0.5120175    4.2800146   -2.6088126 
C    -1.8581883    4.6327044   -2.9606322 
C    -2.5880035    4.8647313   -1.7462868 
C     0.7369035   -0.6712957   -2.7136068 
C     1.9623530   -0.5951538   -3.3995416 
C     2.1772790   -1.3397903   -4.5735774 
C     1.1531544   -2.1999551   -5.0259043 
C    -0.0687235   -2.3407893   -4.3234321 
C    -0.2575337   -1.5620269   -3.1728666 
C     1.6022516    1.5440295   -0.8966888 
C     2.1396534    2.3085903   -1.9471847 
C     3.0284718    3.3662872   -1.6931690 
C     3.3496133    3.6614339   -0.3460759 
C     2.8254576    2.9076563    0.7307744 
C     1.9536182    1.8496083    0.4318091 
C    -2.0602848    1.3812396    0.9525639 
H    -4.3501007    2.1334698   -0.8349806 
H    -3.8404063    1.9374061   -3.4808431 
H    -1.2854787    1.0531033   -3.7915665 
H    -1.9378014    4.7601297    0.4139071 
H     0.4822422    4.0650670   -0.5912381 
H     0.2881102    4.0362591   -3.3083329 
H    -2.2642695    4.6880756   -3.9723024 
H    -3.6453857    5.1261947   -1.6737323 
H     2.7751069    0.0302686   -3.0190397 
H    -1.2023001   -1.6521201   -2.6240352 
H     1.8607942    2.0914025   -2.9830619 
H     1.5426767    1.2409353    1.2478172 
H    -1.1127688    1.8993237    1.1923455 
H    -1.1511670   -1.2235233    3.7154982 
H    -4.0862395   -0.8766920    1.5218452 
C    -4.3344121   -3.6691250    1.6029373 
C    -3.1127665   -2.7862009    1.9125940 
C    -3.1928834   -1.4320537    1.1722909 
C    -3.3131043   -1.6906317   -0.3492363 
C    -4.5286634   -2.5776732   -0.6731491 
C    -4.4844562   -3.9089024    0.0924945 
H    -5.2460305   -3.1759236    1.9936324 
H    -4.2407806   -4.6296666    2.1414124 
H    -2.1947916   -3.3028778    1.5742011 
H    -3.0119277   -2.6476678    3.0018150 
H    -3.3789559   -0.7455164   -0.9090990 
H    -2.3844701   -2.1975920   -0.6830578 
H    -5.4545605   -2.0297029   -0.4090483 
H    -4.5707220   -2.7569975   -1.7629737 
H    -3.6227434   -4.5064471   -0.2667557 
H    -5.3908022   -4.5049625   -0.1153713 
C    -2.6232268   -0.1210353    5.7508682 
C    -2.9150463   -0.1109951    4.2380841 
C    -1.5958511   -0.2467549    3.4430123 
C    -0.5686643    0.8435104    3.8342639 
C    -0.3351807    0.8871307    5.3553820 
C    -1.6543126    1.0090310    6.1343051 
H    -2.1808960   -1.0978689    6.0291409 
H    -3.5713879   -0.0259847    6.3098524 
H    -3.4323014    0.8284605    3.9818100 
H    -3.6071414   -0.9316614    3.9830441 
H     0.3863561    0.6547476    3.3062465 
H    -0.9271330    1.8359633    3.5000256 
H     0.1770200   -0.0413416    5.6632675 
H     0.3422823    1.7256583    5.5993929 
H    -2.1282124    1.9866718    5.9144593 
H    -1.4550051    0.9931932    7.2207285 
C    -3.2166328    2.1037637    1.6634347 
H    -3.3898434    3.0756452    1.1711720 
H    -4.1567710    1.5288756    1.6162092 
H    -2.9835483    2.3001423    2.7198628 
C     3.4782019   -1.2575444   -5.3353534 
H     3.8980228   -2.2649254   -5.4985208 
H     3.3273249   -0.8117882   -6.3354415 
H     4.2157327   -0.6452298   -4.7936996 
C    -1.1232530   -3.3137923   -4.7972219 
H    -1.7745233   -2.8591422   -5.5673522 
H    -0.6537057   -4.2037418   -5.2476812 
H    -1.7721794   -3.6307377   -3.9640154 
O     1.4027253   -2.9848202   -6.1306497 
C     0.8888473   -2.5024433   -7.3798273 
H     1.2051793   -3.2270910   -8.1447886 
H    -0.2157031   -2.4401180   -7.3694034 
H     1.3019836   -1.5051221   -7.6234356 
C     3.6240295    4.1756363   -2.8207319 
H     4.6336251    4.5282425   -2.5544216 
H     3.6830516    3.5795899   -3.7461395 
H     3.0070749    5.0677993   -3.0397145 
C     3.2272871    3.2334654    2.1497334 
H     4.3237932    3.3226239    2.2327820 
H     2.8046832    4.2013945    2.4756033 
H     2.8742822    2.4582380    2.8496178 
O     4.2510662    4.6614376   -0.0609248 
C     3.7097848    5.9888063    0.0191932 
H     4.5500079    6.6505249    0.2761938 
H     3.2719696    6.3074253   -0.9451596 
H     2.9329601    6.0554616    0.8046850 
