124
Energy =
C     1.3427791    1.0580629   -2.9565897 
C     2.4292092    0.3194659   -2.4161172 
C     2.3352282   -1.0837822   -2.2000347 
H     3.2970414    0.8654950   -2.0235991 
Pd    0.7292992    0.0340690   -1.0627662 
P     0.2543677   -1.4971552    0.6237077 
P    -0.8981275    1.5795847   -0.4323230 
H     0.6324727    0.5148245   -3.5996626 
H     1.6437196   -1.6461742   -2.8459958 
C     1.3804946    5.3149910   -3.5570798 
C     1.9920962    4.7692044   -2.4154164 
C     1.9835428    3.3866952   -2.2071377 
C     1.3521335    2.5233126   -3.1315556 
C     0.7163460    3.0862103   -4.2586592 
C     0.7444075    4.4689925   -4.4770753 
H     1.3944741    6.3971666   -3.7235472 
H     2.4748577    5.4247419   -1.6832715 
H     2.4450924    2.9738814   -1.3040257 
H     0.1990209    2.4318490   -4.9685914 
H     0.2555752    4.8883044   -5.3622229 
C     5.5949237   -3.4003651   -0.6238427 
C     4.6567838   -3.9843227   -1.4872048 
C     3.5730583   -3.2330852   -1.9589012 
C     3.4155194   -1.8777824   -1.5894462 
C     4.3451054   -1.3159346   -0.6818751 
C     5.4257519   -2.0672573   -0.2122132 
H     6.4406039   -3.9874677   -0.2540985 
H     4.7680823   -5.0292486   -1.7917158 
H     2.8523879   -3.6891874   -2.6473421 
H     4.2174595   -0.2858609   -0.3311935 
H     6.1327853   -1.6119986    0.4886639 
Fe   -2.4176864   -1.2556484    3.0010927 
C    -0.7055102   -0.8012276    2.0034866 
C    -1.7007460    0.2576196    1.8675720 
C    -1.9979943    0.7298061    3.1943882 
C    -1.2401247   -0.0349826    4.1386176 
C    -0.4532901   -0.9890076    3.4191924 
C    -4.3814006   -1.5584005    2.4879206 
C    -3.5676009   -2.6395698    2.0189644 
C    -2.9184191   -3.2341519    3.1565737 
C    -3.3326871   -2.5138351    4.3254325 
C    -4.2333081   -1.4757906    3.9126705 
C     1.7393065   -2.1911566    1.4394030 
C     2.4937279   -1.3009614    2.2276911 
C     3.6887059   -1.7240695    2.8212673 
C     4.1355399   -3.0423965    2.6643593 
C     3.3904612   -3.9231492    1.8687232 
C     2.2177908   -3.4975203    1.2292231 
C    -0.7213914   -2.8909296   -0.0659390 
C    -0.9166774   -4.1208493    0.5882932 
C    -1.7571509   -5.0872961    0.0193042 
C    -2.4480048   -4.8264550   -1.1766923 
C    -2.2647850   -3.5936253   -1.8147198 
C    -1.3872845   -2.6421854   -1.2758611 
C    -2.2890387    0.7748163    0.5797991 
H    -2.7195415    1.5073691    3.4468551 
H    -1.2872422    0.0627317    5.2245898 
H     0.2308822   -1.7194496    3.8530509 
H    -4.9995600   -0.9078331    1.8673022 
H    -3.4646807   -2.9517856    0.9786051 
H    -2.2508235   -4.0949511    3.1427976 
H    -3.0022153   -2.7064412    5.3477247 
H    -4.7036229   -0.7375748    4.5648918 
H     2.1537704   -0.2714659    2.3801986 
H     1.6933111   -4.1964675    0.5742256 
H    -0.4331492   -4.3277371    1.5466549 
H    -1.2250794   -1.6879158   -1.7928349 
H    -2.5880800   -0.0870237   -0.0463615 
C    -3.4992854    1.6960447    0.7817009 
H    -4.2801854    1.1593190    1.3460184 
H    -3.2284272    2.5957620    1.3571049 
H    -3.9198201    2.0129959   -0.1856711 
C     4.5370849   -0.7000801    3.5385714 
F     5.1674484    0.1052887    2.6325333 
F     3.7854071    0.1125990    4.3214550 
F     5.4874743   -1.2613474    4.3076362 
C     3.8274927   -5.3687919    1.7469371 
F     3.3583050   -5.9424965    0.6131476 
F     5.1750479   -5.4869833    1.7465082 
F     3.3606448   -6.0976676    2.7878171 
C    -1.8883409   -6.4381382    0.6952445 
F    -3.0408688   -7.0539269    0.3666305 
F    -0.8672653   -7.2518764    0.3441206 
F    -1.8506384   -6.3129794    2.0476070 
C    -3.0315664   -3.2187156   -3.0636131 
F    -3.9224521   -2.2226144   -2.7865231 
F    -2.2027106   -2.7312254   -4.0215693 
F    -3.7166268   -4.2501310   -3.5835472 
H     5.0635707   -3.3725434    3.1372736 
H    -3.1246373   -5.5741251   -1.5979532 
C    -3.1359273    3.3083195   -4.0798457 
C    -3.1689432    1.9232596   -3.8122118 
C    -2.4824645    1.4519607   -2.6821245 
C    -1.7753925    2.3403107   -1.8411647 
C    -1.7356084    3.7096706   -2.1460546 
C    -2.4315858    4.2107491   -3.2655200 
H    -3.6690758    3.6902389   -4.9591176 
H    -2.5040476    0.3774922   -2.4605478 
H    -1.1375628    4.3945359   -1.5378822 
C    -3.9278005    0.9782521   -4.7177336 
H    -3.6068059    1.0949334   -5.7681322 
H    -3.7799196   -0.0731642   -4.4247713 
H    -5.0117802    1.1919008   -4.6858609 
C    -2.4256781    5.6917989   -3.5704247 
H    -3.3226295    6.1791017   -3.1437921 
H    -1.5386061    6.1856742   -3.1410939 
H    -2.4367776    5.8794260   -4.6573126 
C     0.9979143    4.5981378    2.5043240 
C    -0.2739180    4.9099728    1.9830137 
C    -0.8634614    4.0192148    1.0676035 
C    -0.1854710    2.8475730    0.6730062 
C     1.0852656    2.5663512    1.2121529 
C     1.6936665    3.4313313    2.1387581 
H     1.4612407    5.2903171    3.2182037 
H    -1.8505477    4.2545227    0.6576506 
H     1.6074535    1.6543165    0.8912021 
C    -0.9806149    6.1817963    2.3972787 
H    -1.9875986    6.2498198    1.9544380 
H    -1.0825269    6.2386871    3.4956220 
H    -0.4070472    7.0711523    2.0786526 
C     3.0414043    3.0999751    2.7399434 
H     3.6090164    2.3964336    2.1087250 
H     3.6519453    4.0070934    2.8844744 
H     2.9213402    2.6227604    3.7297819 
