122
Energy =
C     2.2950337    1.7294856   -1.7191536 
C     1.6887833    1.1319179   -2.8738543 
C     0.3479649    1.3614077   -3.2233444 
H     2.2656555    0.4014799   -3.4537906 
Pd    0.6452183    0.3698624   -1.0756713 
P    -1.0929924   -1.2051476   -1.3380500 
P     0.9502851    0.6104763    1.2235725 
H     1.9073946    2.7109337   -1.4136348 
H    -0.1739973    2.1870956   -2.7171767 
C     6.5001643    1.1621304   -0.9340313 
C     5.7577754    0.1410416   -1.5505776 
C     4.3871397    0.3023197   -1.7757186 
C     3.7233143    1.4968736   -1.4066944 
C     4.4844834    2.5109159   -0.7816874 
C     5.8553810    2.3453595   -0.5450361 
H     7.5724991    1.0331633   -0.7561720 
H     6.2502582   -0.7905680   -1.8476817 
H     3.8217202   -0.5132932   -2.2404854 
H     4.0004944    3.4535459   -0.5045368 
H     6.4244507    3.1502090   -0.0683038 
C    -1.6602472   -0.0189972   -6.7603067 
C    -2.3495849    0.7245090   -5.7906231 
C    -1.6841367    1.1602688   -4.6403296 
C    -0.3209655    0.8475380   -4.4238907 
C     0.3589805    0.0952941   -5.4112301 
C    -0.3031490   -0.3264740   -6.5664407 
H    -2.1745818   -0.3520134   -7.6677385 
H    -3.4054669    0.9752306   -5.9349626 
H    -2.2245585    1.7518053   -3.8958111 
H     1.4163301   -0.1532157   -5.2847317 
H     0.2417918   -0.9012528   -7.3218145 
Fe   -3.1397174   -0.6397300    3.4064026 
C    -1.6323983   -0.1811065    2.1125000 
C    -2.5359030   -1.1513945    1.5090802 
C    -3.8601372   -0.5753520    1.5092937 
H    -4.7514763   -1.0654258    1.1163098 
C    -3.7868884    0.7400798    2.0676020 
H    -4.6249502    1.4240989    2.2114266 
C    -2.4271198    0.9779279    2.4566005 
H    -2.0631660    1.8688601    2.9713916 
C    -2.3101072   -0.9013715    5.2553150 
H    -1.2749322   -0.6928298    5.5337713 
C    -2.8144706   -2.1504665    4.7601901 
H    -2.2310752   -3.0613518    4.6134329 
C    -4.2198988   -1.9939204    4.5066997 
H    -4.8988058   -2.7585682    4.1241455 
C    -4.5836086   -0.6492267    4.8498641 
H    -5.5780877   -0.2094167    4.7547650 
C    -3.4044931    0.0256048    5.3143376 
H    -3.3468402    1.0685346    5.6319622 
C    -2.2130539   -2.4930418    0.9503443 
C    -1.4747425   -2.6626755   -0.2543836 
C    -1.1385229   -3.9649423   -0.6821023 
H    -0.5648283   -4.1069023   -1.6011139 
C    -1.5561862   -5.0934457    0.0350214 
H    -1.2793895   -6.0922356   -0.3173905 
C    -2.3518519   -4.9332935    1.1756056 
H    -2.7151607   -5.8062844    1.7275240 
C    -2.6700035   -3.6446878    1.6192453 
H    -3.2714777   -3.5009138    2.5186270 
C    -0.1624557   -0.3440103    2.4281632 
H     0.0129174    0.1811785    3.3857369 
C     0.2746529   -1.8109313    2.5943045 
H    -0.5088910   -2.3502773    3.1496012 
H     0.4137468   -2.3217439    1.6290093 
H     1.2125329   -1.8832346    3.1651028 
C     0.2566280   -3.5084403   -5.1573830 
C     1.1720758   -3.1599953   -4.1522214 
C     0.7408564   -2.4296142   -3.0369395 
C    -0.6145784   -2.0507323   -2.9088497 
C    -1.5207406   -2.3827809   -3.9315547 
C    -1.0827398   -3.1085546   -5.0489479 
H     0.5903484   -4.0798244   -6.0296854 
H     2.2221675   -3.4598545   -4.2342203 
H     1.4541029   -2.1651232   -2.2451452 
H    -2.5649393   -2.0653059   -3.8713077 
H    -1.7952882   -3.3540682   -5.8429078 
C    -5.3183876    0.6625957   -1.8654740 
C    -5.1594652   -0.7296338   -1.9628268 
C    -3.8921204   -1.3068993   -1.8099929 
C    -2.7659067   -0.4875047   -1.5833789 
C    -2.9353080    0.9041690   -1.4733956 
C    -4.2062689    1.4784489   -1.6118269 
H    -6.3124763    1.1085351   -1.9748439 
H    -6.0289216   -1.3696568   -2.1460424 
H    -3.7813425   -2.3961253   -1.8431318 
H    -2.0655774    1.5325706   -1.2587341 
H    -4.3280227    2.5622895   -1.5136568 
H     3.2414359    1.1553659    1.3260132 
C     4.8115258   -1.0437756    1.6894687 
C     3.3202417   -0.9815349    1.3155687 
C     2.6949907    0.3348642    1.8323949 
C     2.8907760    0.4902653    3.3577602 
C     4.3874762    0.4202273    3.7163178 
C     5.0221488   -0.8833245    3.2041385 
H     5.3471558   -0.2362202    1.1576446 
H     5.2437668   -1.9973362    1.3358081 
H     2.7999680   -1.8507461    1.7526082 
H     3.1893750   -1.0475776    0.2206153 
H     2.4546342    1.4389050    3.7195021 
H     2.3581967   -0.3224893    3.8857590 
H     4.9077685    1.2863301    3.2617595 
H     4.5125268    0.5112794    4.8103148 
H     4.5655918   -1.7429856    3.7340404 
H     6.1002782   -0.9020494    3.4439978 
H     0.1509012    2.3676380    2.6934405 
C    -0.9912841    4.3840962    1.1633153 
C    -0.5523213    2.9753146    0.7309946 
C     0.5494396    2.4116836    1.6601976 
C     1.7565363    3.3744859    1.6646954 
C     1.3267519    4.7904086    2.0963529 
C     0.2042777    5.3479853    1.2075849 
H    -1.4594799    4.3264068    2.1662062 
H    -1.7697455    4.7589182    0.4741452 
H    -0.1458322    3.0207528   -0.2994776 
H    -1.4174795    2.2943195    0.6983298 
H     2.5565327    3.0170865    2.3328627 
H     2.1874663    3.4176157    0.6488070 
H     0.9798424    4.7538621    3.1478479 
H     2.2044742    5.4613170    2.0785914 
H     0.5914718    5.4919213    0.1790129 
H    -0.1121528    6.3430892    1.5673701 
