124
Energy =
C    -0.4493627    0.4905446   -3.0220011 
C     0.3741805   -0.6721965   -2.9978461 
C    -0.1471556   -1.9210931   -2.5812930 
H     1.4518123   -0.5679445   -3.1751883 
Pd   -0.3090457   -0.3619052   -0.9327560 
P     0.2562245   -1.6049611    0.9472373 
P    -0.7637900    1.6110349    0.2714899 
H    -1.5212596    0.3246117   -3.2017748 
H    -1.2420224   -2.0383704   -2.6106778 
C     0.9409416    4.4162442   -4.0897139 
C    -0.4220808    4.0961527   -4.1705405 
C    -0.8653183    2.8202820   -3.8022842 
C     0.0448063    1.8390885   -3.3478584 
C     1.4125532    2.1877342   -3.2406277 
C     1.8537607    3.4591043   -3.6167782 
H     1.2910422    5.4110763   -4.3830307 
H    -1.1414503    4.8382685   -4.5320516 
H    -1.9282835    2.5706192   -3.8854381 
H     2.1380443    1.4660595   -2.8515423 
H     2.9155615    3.7093643   -3.5312123 
C     1.9328450   -5.6839101   -2.4699507 
C     0.5405506   -5.6240822   -2.3085653 
C    -0.1173875   -4.3891708   -2.3199387 
C     0.6004144   -3.1868487   -2.5191741 
C     2.0049946   -3.2639596   -2.6815709 
C     2.6631622   -4.4970967   -2.6455346 
H     2.4491360   -6.6477481   -2.4439294 
H    -0.0378900   -6.5422345   -2.1648290 
H    -1.2037475   -4.3544744   -2.1820299 
H     2.5949499   -2.3589497   -2.8600182 
H     3.7512500   -4.5309248   -2.7568505 
Fe   -2.7457998   -1.1158773    2.4240009 
C    -0.7001741   -1.1857880    2.4162792 
C    -1.1916402    0.1512917    2.7301003 
C    -1.9910880    0.0253135    3.9234313 
C    -2.0234196   -1.3460813    4.3269750 
C    -1.2374456   -2.0998521    3.4036442 
C    -4.3325192   -2.3957192    2.1488677 
C    -4.7658598   -1.1368093    2.6867643 
C    -4.3870365   -0.1004975    1.7656012 
C    -3.7223149   -0.7227253    0.6580335 
C    -3.6993730   -2.1355273    0.8909922 
C     2.0096589   -1.1349234    1.2452984 
C     2.8445029   -1.1421928    0.1148780 
C     4.1806723   -0.7420289    0.2134715 
C     4.6917425   -0.2892063    1.4369839 
C     3.8506520   -0.2638804    2.5605315 
C     2.5212691   -0.7107642    2.4815013 
C     0.3385967   -3.4434538    0.9552628 
C    -0.8675407   -4.1589372    0.9881590 
C    -0.8687676   -5.5585243    0.9810908 
C     0.3345121   -6.2706539    0.9341348 
C     1.5410159   -5.5557387    0.8873732 
C     1.5517621   -4.1545683    0.8935140 
C    -0.8301755    1.5108315    2.1739715 
H    -2.5084050    0.8519058    4.4153268 
H    -2.5805223   -1.7557963    5.1712040 
H    -1.0713949   -3.1770422    3.4369617 
H    -4.4490415   -3.3756631    2.6143562 
H    -5.2663650   -0.9895402    3.6457447 
H    -4.5530510    0.9714801    1.8893058 
H    -3.3158908   -0.2154176   -0.2142698 
H    -3.3049846   -2.8830515    0.2016662 
H     2.4437490   -1.4605079   -0.8512819 
H     1.8883194   -0.7044788    3.3739398 
H    -1.8106089   -3.6144756    1.0481608 
H     2.5118171   -3.6362229    0.8461501 
H    -1.6907012    2.1571493    2.4129631 
C     0.3972934    2.1088906    2.8958929 
H     0.2357297    2.0375019    3.9854169 
H     1.3311932    1.5787765    2.6582392 
H     0.5376287    3.1683440    2.6285091 
C     5.0184725   -0.7814330   -1.0443017 
F     5.2054503   -2.0510079   -1.4760479 
F     4.3811336   -0.1200849   -2.0589436 
F     6.2245739   -0.2086946   -0.8820351 
C     4.3457039    0.3570704    3.8495817 
F     3.7506105   -0.1875331    4.9318109 
F     5.6799920    0.2375676    3.9920949 
F     4.0537435    1.6895722    3.8591681 
C    -2.2085913   -6.2542553    0.9333141 
F    -2.1112935   -7.5848174    1.0998598 
F    -3.0493984   -5.7694997    1.8845710 
F    -2.8128150   -6.0287646   -0.2678485 
C     2.8550892   -6.3094103    0.8606172 
F     2.7430635   -7.4721514    0.1749161 
F     3.8357596   -5.5788578    0.2761894 
F     3.2713251   -6.6164831    2.1096392 
H     5.7257440    0.0555661    1.5128274 
H     0.3342857   -7.3632272    0.9133083 
C    -4.7574288    3.7441783   -0.7667800 
C    -4.0111957    4.1983329    0.3414931 
C    -2.8097882    3.5406452    0.6522345 
C    -2.3543161    2.4525396   -0.1257092 
C    -3.1145205    2.0381679   -1.2284806 
C    -4.3272486    2.6724146   -1.5643608 
H    -5.7019832    4.2445763   -1.0118402 
H    -2.2179037    3.9037264    1.5003425 
H    -2.7671608    1.1946447   -1.8320022 
C    -4.4959187    5.3724853    1.1624241 
H    -3.8401148    5.5624262    2.0275719 
H    -4.5283182    6.2921184    0.5503389 
H    -5.5200196    5.1975872    1.5374451 
C    -5.1248754    2.2010455   -2.7597200 
H    -5.2723481    1.1067775   -2.7333366 
H    -6.1158091    2.6803860   -2.8014973 
H    -4.5966546    2.4375666   -3.7025122 
C     2.5762632    4.7230128   -0.5083010 
C     2.9163688    3.4238896   -0.0885713 
C     1.8801230    2.4926759    0.1001182 
C     0.5327056    2.8663164   -0.0805389 
C     0.2227967    4.1648720   -0.5222106 
C     1.2437162    5.1065842   -0.7458214 
H     3.3771512    5.4542654   -0.6708737 
H     2.1279141    1.4686975    0.3997228 
H    -0.8159111    4.4497864   -0.7116743 
C     4.3565496    3.0299261    0.1540793 
H     4.6641669    2.2120672   -0.5209952 
H     5.0402446    3.8784822   -0.0082415 
H     4.4927989    2.6740767    1.1908232 
C     0.9029141    6.5039169   -1.2119728 
H     0.6434553    7.1511355   -0.3530504 
H     1.7520727    6.9732188   -1.7355407 
H     0.0359939    6.4940481   -1.8941510 
