94
Energy =
C    -2.4184074    1.9335758    1.2995598 
C    -1.3253923    2.8329154    1.1140939 
C    -1.0168004    3.2243718   -0.2300312 
H    -0.6653325    3.0983167    1.9483161 
Pd   -0.6914012    1.0885456    0.0705038 
P     2.4397379    0.7390766    1.3799987 
P    -1.2905340   -0.5181090   -1.5231668 
H    -3.2117568    1.9448334    0.5404526 
H    -1.8387787    3.1944318   -0.9576516 
C    -3.3289333   -0.3796844    4.7991852 
C    -2.0695242    0.2339312    4.6808302 
C    -1.7609152    1.0029008    3.5565305 
C    -2.7120609    1.1834904    2.5199361 
C    -3.9784545    0.5589224    2.6553710 
C    -4.2828482   -0.2131166    3.7813966 
H    -3.5657807   -0.9829516    5.6816553 
H    -1.3200386    0.1019962    5.4679888 
H    -0.7625598    1.4421926    3.4652926 
H    -4.7262532    0.6922232    1.8651786 
H    -5.2688343   -0.6810333    3.8707607 
C     2.5635389    5.0614780   -1.7205449 
C     1.4783673    4.7993163   -2.5739962 
C     0.3104290    4.2262542   -2.0630512 
C     0.2034222    3.8974208   -0.6883639 
C     1.3039560    4.1723431    0.1608381 
C     2.4684903    4.7489187   -0.3530478 
H     3.4784667    5.5129333   -2.1179064 
H     1.5445745    5.0471840   -3.6384776 
H    -0.5331151    4.0118031   -2.7294909 
H     1.2577672    3.9158297    1.2229759 
H     3.3108000    4.9537647    0.3155903 
Fe    1.0611661   -0.1354106   -0.9545355 
C     2.9464833    0.0722222   -0.2910925 
C     2.9643259    0.6770624   -1.5518971 
H     2.9456290    1.7617859   -1.7099236 
C     3.3874291   -0.3157545   -2.6191534 
H     4.3707490   -0.0965768   -3.0715510 
C     3.2369878   -1.7298025   -1.9399116 
H     4.1305763   -2.3662290   -2.0233236 
C     2.9547431   -1.4739083   -0.4136689 
C     0.1316927   -1.0744848   -2.4470581 
C     0.7088201   -2.4550161   -2.7011314 
H     0.2054245   -2.9158190   -3.5733615 
C     2.1725417   -2.1174671   -3.0428144 
H     2.6128955   -2.8589522   -3.7267318 
C     2.2097908   -0.6487163   -3.5816186 
H     2.3461345   -0.4929031   -4.6651292 
C     0.9356128   -0.0316149   -3.0077149 
H     3.7557467   -1.9356868    0.1976405 
H     0.5431125    0.9270432   -3.3705238 
C     1.2352767   -0.6269718    1.1398058 
C     1.6105145   -1.7209054    0.2834244 
C     0.8259008   -2.8444512    0.7299160 
C     0.0526963   -2.4015261    1.7820630 
H     0.5864658   -3.1446541   -1.8538746 
H     0.8262983   -3.8633871    0.3430365 
O     0.2793201   -1.0791753    2.0545942 
C    -0.9201801   -3.0856787    2.6783651 
H    -1.2010480   -4.0654279    2.2653478 
H    -0.4757038   -3.2308917    3.6803483 
H    -1.8257501   -2.4709457    2.8071708 
C     3.6328911   -0.0529896    2.5190582 
C     3.7502696   -1.3223952    3.0555321 
C     4.8478323   -1.2799817    3.9706316 
C     5.3391313    0.0086680    3.9429286 
H     3.1136762   -2.1772117    2.8215083 
H     5.2332704   -2.0978048    4.5800346 
O     4.6005496    0.7614075    3.0711605 
C     6.4605784    0.6963254    4.6428510 
H     6.9662908   -0.0068975    5.3217691 
H     7.2017849    1.0822926    3.9197543 
H     6.0927147    1.5547792    5.2332124 
C    -2.2020287   -1.9340495   -0.9115308 
C    -2.9961072   -2.0853935    0.2052883 
C    -3.5437873   -3.4038623    0.1326394 
C    -3.0523744   -3.9792295   -1.0210494 
H    -3.1547034   -1.3366686    0.9823262 
H    -4.2178930   -3.8775045    0.8464359 
C    -2.3284892    0.4019513   -2.6814484 
C    -2.4398227    0.4003049   -4.0563325 
C    -3.4173386    1.3913398   -4.3855045 
C    -3.8473801    1.9417355   -3.1973716 
H    -1.8831079   -0.2397359   -4.7408129 
H    -3.7669283    1.6662359   -5.3808572 
O    -2.2400262   -3.0857201   -1.6687579 
O    -3.1837904    1.3486279   -2.1530983 
C    -3.2260409   -5.3123129   -1.6626020 
H    -3.6604552   -5.2102273   -2.6732072 
H    -2.2564882   -5.8318984   -1.7674423 
H    -3.8962303   -5.9370210   -1.0532063 
C    -4.8379718    2.9972403   -2.8461356 
H    -5.6400483    2.5902674   -2.2042307 
H    -4.3587006    3.8284324   -2.2970898 
H    -5.2947569    3.4014641   -3.7618764 
