134
Energy =
C    -0.1985944   -0.7960554   -3.3482463 
C     0.4027415    0.4784170   -3.3694973 
C     1.6756193    0.6931087   -2.7518527 
H    -0.1670131    1.3324080   -3.7592387 
Pd    0.1975360    0.0232881   -1.2163990 
P     1.6064918    0.5132485    0.5985647 
P    -1.7836100   -0.5434425   -0.0678620 
H     0.4239489   -1.6465994   -3.0253372 
H     2.3827444   -0.1422603   -2.8044578 
C    -3.8036993   -1.9226050   -5.3920864 
C    -3.3297585   -2.6860850   -4.3127189 
C    -2.1528586   -2.3157495   -3.6580558 
C    -1.4389632   -1.1591036   -4.0474879 
C    -1.9245946   -0.4037509   -5.1391185 
C    -3.0904495   -0.7891988   -5.8099098 
H    -4.7209141   -2.2172529   -5.9121342 
H    -3.8825743   -3.5711341   -3.9820041 
H    -1.7860692   -2.9075891   -2.8134136 
H    -1.3678543    0.4724605   -5.4867957 
H    -3.4435405   -0.2025519   -6.6640746 
C     3.5359156    4.5613533   -2.4918783 
C     4.3168794    3.3982585   -2.5600055 
C     3.7025968    2.1410509   -2.6165583 
C     2.2943953    2.0248314   -2.6210809 
C     1.5206741    3.2045122   -2.5113821 
C     2.1356596    4.4581759   -2.4525610 
H     4.0157216    5.5443965   -2.4508096 
H     5.4095422    3.4702869   -2.5746991 
H     4.3156585    1.2348905   -2.6732596 
H     0.4289228    3.1350053   -2.4508137 
H     1.5218443    5.3600825   -2.3643832 
Fe    0.6437278   -4.4626208    1.2352217 
C    -0.2373739   -2.7792460    0.5172176 
C     0.8878351   -2.4323482    1.3711819 
C     2.0614914   -3.0743015    0.8286995 
H     3.0596297   -3.0156921    1.2638274 
C     1.6888893   -3.7767365   -0.3633390 
H     2.3513609   -4.3824241   -0.9849246 
C     0.2803159   -3.5927642   -0.5580052 
H    -0.3195367   -4.0375429   -1.3553089 
C    -0.7427923   -5.9100071    1.6474535 
H    -1.7740401   -5.9404042    1.2907302 
C    -0.2826257   -5.3030953    2.8641750 
H    -0.9090971   -4.8019040    3.6040002 
C     1.1404803   -5.4849346    2.9408693 
H     1.7959790   -5.1296365    3.7381212 
C     1.5573031   -6.2085237    1.7751770 
H     2.5831820   -6.4853138    1.5254315 
C     0.3944917   -6.4709361    0.9755631 
H     0.3814025   -6.9847667    0.0124804 
C     0.9215753   -1.4770282    2.5136450 
C     1.2041247   -0.0986711    2.3005533 
C     1.2931870    0.7754191    3.4024070 
H     1.5048222    1.8358856    3.2350109 
C     1.1210179    0.3013265    4.7090493 
H     1.2060658    0.9923994    5.5536416 
C     0.8365779   -1.0529997    4.9266589 
H     0.6983695   -1.4331952    5.9440763 
C     0.7370948   -1.9261948    3.8353371 
H     0.5281601   -2.9868172    3.9895627 
C    -2.3329536    0.6513959    1.2412488 
C    -1.9952835    0.5283006    2.6034803 
H    -1.3996171   -0.3145364    2.9557436 
C    -2.4323375    1.4817074    3.5446587 
C    -3.1847086    2.5813013    3.0970173 
H    -3.5284774    3.3252569    3.8263278 
C    -3.5223085    2.7423558    1.7412850 
C    -3.0920400    1.7681724    0.8263016 
H    -3.3758121    1.8807860   -0.2235242 
C    -3.2825057   -0.5627379   -1.1398951 
C    -4.3543552   -1.4493062   -0.9268051 
H    -4.3089184   -2.2028432   -0.1336706 
C    -5.5126346   -1.3820470   -1.7221570 
C    -5.5895017   -0.3846255   -2.7117351 
H    -6.4931732   -0.3173747   -3.3297306 
C    -4.5411743    0.5255581   -2.9377737 
C    -3.3784873    0.4055555   -2.1568582 
H    -2.5301511    1.0764001   -2.3428351 
C    -1.6737488   -2.3171832    0.6074501 
H    -2.2109666   -2.8567204   -0.1927705 
C    -2.3909286   -2.6082569    1.9380169 
H    -2.5937284   -3.6890733    2.0028716 
H    -1.7676559   -2.3351483    2.8015724 
H    -3.3459609   -2.0634267    2.0176900 
C    -6.6409819   -2.3723278   -1.5380311 
C    -4.6711630    1.6172037   -3.9751117 
C    -2.1027980    1.3353386    5.0131983 
C    -4.3685095    3.9107688    1.2860971 
C     1.7002062    5.1179870    1.0482138 
C     2.9258017    4.4519221    0.8612961 
C     2.9163673    3.0521361    0.7243046 
C     1.7068128    2.3373580    0.7889689 
C     0.4905331    3.0275655    0.9637018 
C     0.4754766    4.4274248    1.1001632 
H     1.6984433    6.2104251    1.1476757 
H     3.8592415    2.5269850    0.5492602 
H    -0.4539313    2.4732477    1.0020482 
C     5.9516827   -1.1053665    0.3523239 
C     5.0503968   -1.4304719   -0.6757394 
C     3.7421820   -0.9161792   -0.6017121 
C     3.3451244   -0.0936615    0.4622596 
C     4.2610701    0.1914647    1.4962701 
C     5.5764829   -0.3005073    1.4479495 
H     6.9723494   -1.5052990    0.3125103 
H     3.0068446   -1.2099774   -1.3542850 
H     3.9462905    0.7907298    2.3578025 
H    -1.7896728    0.3081923    5.2571365 
H    -1.2745967    2.0105934    5.2969293 
H    -2.9709700    1.5981272    5.6417667 
H    -5.4335129    3.7377953    1.5290716 
H    -4.0667112    4.8457956    1.7885056 
H    -4.2956422    4.0632078    0.1964135 
H    -6.5724420   -2.8922760   -0.5681656 
H    -7.6252809   -1.8769357   -1.5964968 
H    -6.6151266   -3.1410639   -2.3336957 
H    -5.2373796    2.4753381   -3.5659274 
H    -3.6835062    1.9876623   -4.2956596 
H    -5.2121984    1.2615948   -4.8678999 
C     4.2289743    5.2183153    0.8311702 
H     5.0089843    4.6605203    0.2874026 
H     4.1061255    6.2027632    0.3487817 
H     4.5982441    5.3996936    1.8583494 
C    -0.8335109    5.1602247    1.2950177 
H    -1.5368723    4.9382442    0.4729116 
H    -1.3262785    4.8394182    2.2302204 
H    -0.6852648    6.2514477    1.3379460 
C     5.4623923   -2.3043875   -1.8400544 
H     6.3181501   -2.9493931   -1.5813284 
H     4.6289648   -2.9483515   -2.1708684 
H     5.7637186   -1.6866177   -2.7073772 
C     6.5709020    0.0350069    2.5374307 
H     7.2356473    0.8594104    2.2173736 
H     6.0638034    0.3553717    3.4625336 
H     7.2145485   -0.8292966    2.7744827 
