110
Energy =
C     2.0858178    2.0248569    1.0098127 
C     2.4648022    2.3448276   -0.3269203 
C     1.6891652    3.1939738   -1.1369070 
H     3.3701047    1.8806673   -0.7384454 
Pd    0.5990351    1.1147104   -0.3656183 
P    -1.0897582    0.5257689   -1.9814223 
P    -0.0755172   -0.4714422    1.2010377 
H     1.4099629    2.7341017    1.5128751 
H     0.9074529    3.7822557   -0.6338575 
C     4.7411034   -0.0464582    3.6945412 
C     4.5604831   -0.5291804    2.3871576 
C     3.6946452    0.1304814    1.5080726 
C     2.9811229    1.2775167    1.9218988 
C     3.1661679    1.7467554    3.2396678 
C     4.0444287    1.0957132    4.1156024 
H     5.4210235   -0.5612176    4.3812201 
H     5.0962218   -1.4237939    2.0524844 
H     3.5552909   -0.2558470    0.4931690 
H     2.6151021    2.6283650    3.5839207 
H     4.1656035    1.4752036    5.1348201 
C     2.7723350    4.7182445   -5.0079119 
C     1.7283687    5.3000626   -4.2733985 
C     1.3885256    4.7904636   -3.0152759 
C     2.0772629    3.6825388   -2.4641464 
C     3.1433460    3.1229987   -3.2110583 
C     3.4833193    3.6332899   -4.4659148 
H     3.0405169    5.1139385   -5.9927278 
H     1.1827780    6.1585385   -4.6781790 
H     0.5850030    5.2632842   -2.4397841 
H     3.7071687    2.2732048   -2.8131590 
H     4.3089108    3.1847544   -5.0279518 
Fe   -3.2280816   -2.2663853    1.2936093 
C    -1.8767029   -0.7392640    1.1571332 
C    -2.6260873   -0.8764107   -0.0803185 
C    -4.0218604   -0.7231563    0.2430626 
C    -4.1412513   -0.4864563    1.6527636 
C    -2.8288701   -0.5101099    2.2256776 
C    -4.7058274   -3.6820147    1.3223481 
C    -3.6813823   -4.0600085    0.3929443 
C    -2.4436431   -4.1556353    1.1069645 
C    -2.7066329   -3.8467655    2.4872142 
C    -4.1036508   -3.5551329    2.6178519 
C     0.2219726    0.0052283    2.9494545 
C    -0.3668613    1.2151286    3.3811127 
C    -0.1430471    1.6889837    4.6760321 
C     0.6805530    0.9605254    5.5515399 
C     1.2684835   -0.2392122    5.1311042 
C     1.0489047   -0.7121612    3.8309362 
C     0.7796139   -2.0732715    0.9300172 
C     0.5947994   -3.1729913    1.7892419 
C     1.2802361   -4.3717287    1.5611342 
C     2.1433824   -4.4843623    0.4590678 
C     2.3237662   -3.3989754   -0.4130989 
C     1.6500481   -2.1973790   -0.1695893 
C    -2.0122026   -1.0676003   -1.4428526 
H    -4.8562874   -0.8123572   -0.4540003 
H    -5.0755014   -0.3645986    2.2039131 
H    -2.5845759   -0.3833325    3.2807811 
H    -5.7549739   -3.4999873    1.0819675 
H    -3.8224467   -4.2464641   -0.6727593 
H    -1.4788702   -4.4217058    0.6744500 
H    -1.9853536   -3.8402737    3.3058107 
H    -4.6140605   -3.2607570    3.5367156 
H    -0.9991535    1.7911715    2.6954369 
H     1.5627305   -1.6190527    3.5041589 
H    -0.0926077   -3.0924145    2.6341209 
H     1.7934513   -1.3357329   -0.8327764 
H    -1.1610176   -1.7637474   -1.3197019 
C    -3.0049057   -1.7014708   -2.4347252 
H    -3.4454986   -2.5880551   -1.9510104 
H    -3.8262197   -1.0251079   -2.7079992 
H    -2.5126210   -2.0332664   -3.3594880 
C     1.0364106    1.5369523    6.9027197 
F     2.1500871    2.3177308    6.8030351 
F     0.0499789    2.3160429    7.3971818 
F     1.3065829    0.5738344    7.8096001 
H    -0.5976605    2.6262483    5.0096415 
H     1.9232115   -0.7924304    5.8098129 
H     1.1376876   -5.2262284    2.2286179 
H     2.9880502   -3.4972232   -1.2767644 
C     2.9236621   -5.7623801    0.2249820 
F     3.0151796   -6.0453126   -1.0952085 
F     4.1869172   -5.6479169    0.7001918 
F     2.3509410   -6.8203673    0.8393260 
C    -0.3967600    0.1020913   -3.7260066 
C    -2.3471673    1.9753846   -2.0183587 
C    -1.4321992    0.1800643   -4.8680221 
H    -0.9413189   -0.1361657   -5.8069560 
H    -2.3007760   -0.4761270   -4.7111639 
H    -1.7966807    1.2080221   -5.0222653 
C    -1.7388317    3.1277814   -2.8417340 
H    -2.3502465    4.0361024   -2.6903609 
H    -0.7115859    3.3522460   -2.5189010 
H    -1.7232511    2.9159900   -3.9225962 
C     0.7637498    1.0738729   -4.0162286 
H     1.2183928    0.8169732   -4.9903331 
H     0.4488005    2.1262214   -4.0634581 
H     1.5441056    0.9877082   -3.2424144 
C     0.2133173   -1.3186192   -3.6502360 
H     0.7787373   -1.5068295   -4.5806548 
H     0.9207650   -1.4080863   -2.8083770 
H    -0.5397449   -2.1163092   -3.5574270 
C    -3.7395009    1.6183499   -2.5750466 
H    -4.3512136    2.5389809   -2.6038451 
H    -3.6968457    1.2167497   -3.5992967 
H    -4.2643807    0.8991487   -1.9282823 
C    -2.4930854    2.4581187   -0.5521349 
H    -3.1789545    3.3251179   -0.5286302 
H    -2.9059439    1.6801427    0.1090335 
H    -1.5179701    2.7818514   -0.1412864 
