112
Energy =
C     0.6952876    1.3958099   -3.0188065 
C     1.0284266    2.5316642   -2.2159814 
C     2.1355114    2.4935355   -1.3375092 
H     0.3335001    3.3803009   -2.1764915 
Pd    0.6209698    0.8422794   -0.8666856 
P     0.8118260    0.8283336    1.4576190 
P    -0.6148426   -1.1469977   -1.0399572 
H     1.5300915    0.7614913   -3.3531738 
H     2.8996661    1.7256753   -1.5356573 
C    -2.8692729    1.0354166   -5.4184314 
C    -2.8860677    1.8229889   -4.2543378 
C    -1.7317820    1.9588469   -3.4761915 
C    -0.5271718    1.3158314   -3.8463889 
C    -0.5223446    0.5407211   -5.0288923 
C    -1.6810889    0.3980352   -5.8041061 
H    -3.7758011    0.9252690   -6.0220783 
H    -3.8084291    2.3275025   -3.9479871 
H    -1.7722843    2.5480508   -2.5535227 
H     0.4056566    0.0512683   -5.3455627 
H    -1.6529264   -0.2083228   -6.7154984 
C     3.5022110    5.5382241    1.3721262 
C     4.2421617    4.3632462    1.1742332 
C     3.7820913    3.3860617    0.2842906 
C     2.5722830    3.5620097   -0.4269819 
C     1.8466158    4.7600048   -0.2290286 
C     2.3055333    5.7335179    0.6621620 
H     3.8591052    6.3044064    2.0680124 
H     5.1810083    4.2051801    1.7151986 
H     4.3603167    2.4674142    0.1380166 
H     0.9154363    4.9363871   -0.7760808 
H     1.7276793    6.6522072    0.8052476 
Fe   -0.1292126   -1.8565274    3.6064848 
C    -0.3157809   -0.3753159    2.2498710 
C    -0.7310580   -1.6520144    1.6795012 
C    -1.8068614   -2.1561591    2.4950936 
C    -2.0666981   -1.2186408    3.5459791 
C    -1.1578398   -0.1233414    3.4038170 
C     0.4770184   -3.7137637    4.1835975 
C     1.5807113   -2.9698582    3.6428723 
C     1.7451652   -1.7825388    4.4346931 
C     0.7402594   -1.7881650    5.4573146 
C    -0.0444813   -2.9810619    5.3036334 
C     0.3038702    2.4011177    2.2505470 
C    -0.4456750    3.3144011    1.4849682 
C    -0.9399995    4.4912422    2.0634792 
C    -0.6831946    4.7702018    3.4126239 
C     0.0553320    3.8614560    4.1875501 
C     0.5399727    2.6778711    3.6158648 
C     2.5480458    0.4644145    1.9459003 
C     3.3477703    1.3253290    2.7225471 
C     4.6756791    0.9793637    3.0208131 
C     5.2257900   -0.2150118    2.5369980 
C     4.4470947   -1.0597885    1.7287126 
C     3.1242385   -0.7167016    1.4287424 
C    -0.2086923   -2.2884903    0.4157608 
H    -2.3161645   -3.1112387    2.3604275 
H    -2.8055054   -1.3354227    4.3406702 
H    -1.1143971    0.7549453    4.0468881 
H     0.0924886   -4.6636819    3.8072927 
H     2.1905366   -3.2556165    2.7842650 
H     2.4932213   -1.0052228    4.2726667 
H     0.5858572   -1.0128714    6.2100646 
H    -0.8994627   -3.2705256    5.9173210 
H    -0.6408278    3.0925877    0.4294038 
H     1.0846339    1.9614190    4.2394641 
H     2.9529150    2.2781936    3.0808646 
H     2.5331287   -1.3732894    0.7816810 
H     0.8938700   -2.2301156    0.4303685 
C    -0.5925353   -3.7717427    0.2852882 
H    -0.2944041   -4.2928147    1.2118367 
H    -1.6735968   -3.9180438    0.1431617 
H    -0.0676647   -4.2487300   -0.5560983 
H    -1.5206636    5.1936550    1.4566298 
H     0.2465804    4.0702873    5.2452536 
H     5.2826725    1.6572825    3.6300434 
H     4.8739220   -1.9844988    1.3267249 
H    -1.0629355    5.6921963    3.8647867 
H     6.2605115   -0.4816934    2.7748855 
H    -0.1965582   -1.1950267   -3.3380272 
C    -0.5066285   -3.6155205   -4.5381590 
C    -1.0294451   -3.1493629   -3.1642570 
C    -0.1252281   -2.0261756   -2.6122704 
C     1.3600114   -2.4508327   -2.5436909 
C     1.8569859   -2.9287839   -3.9198611 
C     0.9656183   -4.0529549   -4.4730443 
H    -0.6105953   -2.7820911   -5.2607590 
H    -1.1395156   -4.4395523   -4.9131694 
H    -1.0591413   -4.0078715   -2.4700788 
H    -2.0640442   -2.7814942   -3.2727398 
H     1.9761162   -1.6047270   -2.1800094 
H     1.4834221   -3.2722956   -1.8114464 
H     1.8488133   -2.0728380   -4.6235820 
H     2.9064446   -3.2651834   -3.8430626 
H     1.0546359   -4.9428407   -3.8185955 
H     1.3176090   -4.3619649   -5.4732649 
H    -2.5632290   -0.4909887   -2.1887878 
C    -4.2658596    0.8682463   -0.4838895 
C    -2.8060625    0.4427445   -0.2549568 
C    -2.4450613   -0.7866094   -1.1248059 
C    -3.4092248   -1.9556014   -0.8214292 
C    -4.8691315   -1.5248344   -1.0612815 
C    -5.2376761   -0.2932114   -0.2187115 
H    -4.3799482    1.2106113   -1.5312381 
H    -4.5060697    1.7311264    0.1633571 
H    -2.6522312    0.1941739    0.8117149 
H    -2.1172037    1.2762084   -0.4871224 
H    -3.1704894   -2.8409920   -1.4328050 
H    -3.2898259   -2.2462870    0.2379576 
H    -5.0051823   -1.2926509   -2.1360511 
H    -5.5447937   -2.3681866   -0.8313058 
H    -5.1971980   -0.5623811    0.8552743 
H    -6.2763137    0.0187116   -0.4287123 
