106
Energy =
C    -3.1397501   -1.1794186   -1.3637045 
C    -2.9367497   -2.0364630   -0.2509462 
C    -2.9080920   -1.5001864    1.0694885 
H    -2.6550481   -3.0862374   -0.4043731 
Pd   -1.3086426   -0.5754861   -0.2074975 
P     0.3193365    0.0713061    1.3431530 
P    -0.1989786    0.3855818   -2.0231340 
H    -3.6527353   -0.2262747   -1.1678239 
H    -3.4945863   -0.5845000    1.2433333 
C    -3.2371623   -2.3272927   -5.5071400 
C    -3.7383252   -1.0844593   -5.0940405 
C    -3.6807962   -0.7183085   -3.7436397 
C    -3.1247331   -1.5887085   -2.7784625 
C    -2.5948969   -2.8253475   -3.2152535 
C    -2.6593963   -3.1920188   -4.5623608 
H    -3.2893677   -2.6203059   -6.5608005 
H    -4.1843952   -0.4005414   -5.8237264 
H    -4.0836821    0.2489672   -3.4240911 
H    -2.1279728   -3.5065011   -2.4965605 
H    -2.2523849   -4.1569558   -4.8809360 
C    -2.2540341   -3.9122500    4.5684432 
C    -1.4276326   -4.0775317    3.4443655 
C    -1.6261541   -3.2938422    2.3042411 
C    -2.6496643   -2.3199301    2.2692826 
C    -3.4575042   -2.1472110    3.4144718 
C    -3.2728140   -2.9490894    4.5473291 
H    -2.0971824   -4.5278680    5.4600496 
H    -0.6167371   -4.8129954    3.4642360 
H    -0.9612576   -3.4055517    1.4394820 
H    -4.2496710   -1.3900114    3.4052859 
H    -3.9193000   -2.8134722    5.4203010 
Fe    3.3030080    1.0274420   -2.1703646 
C     1.3729912    1.2055887   -1.5990578 
C     2.2154865    0.8644543   -0.4563802 
C     3.1917438    1.9104572   -0.3267573 
C     2.9805388    2.8769451   -1.3595651 
C     1.8673811    2.4502732   -2.1499566 
C     4.3084321    1.2451440   -3.9369366 
C     5.2285328    1.0765492   -2.8477357 
C     4.9485954   -0.1842112   -2.2211229 
C     3.8554304   -0.7931382   -2.9233879 
C     3.4573252    0.0922881   -3.9822451 
C     2.0036347   -0.2452236    0.5434582 
H     3.9792198    1.9389498    0.4287840 
H     3.5872188    3.7660012   -1.5401360 
H     1.4539187    2.9766333   -3.0103458 
H     4.2486948    2.1141683   -4.5949623 
H     5.9891616    1.7940580   -2.5344458 
H     5.4680170   -0.5960251   -1.3537717 
H     3.3960781   -1.7535794   -2.6937332 
H     2.6403848   -0.0783861   -4.6859826 
H     2.7478476   -0.1161273    1.3490957 
C     2.0867735   -1.6727992   -0.0261512 
H     3.1305428   -1.8958277   -0.3022025 
H     1.7500392   -2.4273306    0.7048860 
H     1.4670791   -1.7778493   -0.9305638 
C    -1.2345585    1.6920902   -2.7413250 
C    -1.1673513    2.5060287   -3.8546372 
C    -2.3154687    3.3601603   -3.8148509 
C    -3.0058334    3.0188853   -2.6785089 
H    -0.3858021    2.4926241   -4.6144860 
H    -2.5915616    4.1291525   -4.5366263 
H    -3.9229195    3.3806757   -2.2157733 
O    -2.3665663    2.0124599   -2.0182334 
C     0.0876446   -0.6794480   -3.4648501 
C    -0.2437457   -0.6236706   -4.8025686 
C     0.3089244   -1.7978308   -5.4088781 
C     0.9261403   -2.4973009   -4.4039451 
H    -0.8350301    0.1489429   -5.2891245 
H     0.2399198   -2.0900681   -6.4565614 
H     1.4739565   -3.4374541   -4.3626007 
O     0.7934831   -1.8355613   -3.2165534 
C     0.5794517    4.6459817    1.8893499 
C     1.3155870    3.8181766    2.7660197 
C     1.1889514    2.4263549    2.6352811 
C     0.3375490    1.8778378    1.6535443 
C    -0.4047224    2.7225728    0.8156748 
C    -0.2836231    4.1228189    0.9137190 
H     0.6831192    5.7345297    1.9777357 
H     1.7555491    1.7640429    3.3003949 
H    -1.0801395    2.2909208    0.0684454 
C     0.3597426   -1.7305890    5.5988399 
C    -0.6432632   -0.8160173    5.2253643 
C    -0.6233180   -0.3030067    3.9183358 
C     0.3923681   -0.6698102    3.0132112 
C     1.3895178   -1.5779006    3.4176472 
C     1.3792813   -2.1243545    4.7139815 
H     0.3444306   -2.1495840    6.6123675 
H    -1.4020532    0.4023861    3.6047209 
H     2.1904902   -1.8743345    2.7339266 
C     2.2179764    4.4285361    3.8154815 
H     2.9583965    5.1075668    3.3555790 
H     1.6331580    5.0280479    4.5366803 
H     2.7641185    3.6554600    4.3801943 
C    -1.0605271    5.0148131   -0.0293408 
H    -2.1485482    4.8535472    0.0785343 
H    -0.8537555    6.0813904    0.1547833 
H    -0.8029608    4.7894119   -1.0804903 
C    -1.7007256   -0.3806180    6.2135567 
H    -1.9908797   -1.2098852    6.8803459 
H    -1.3222987    0.4400953    6.8516217 
H    -2.6053997   -0.0162644    5.6997616 
C     2.4185149   -3.1383083    5.1381323 
H     3.2805581   -3.1507990    4.4506764 
H     2.7907489   -2.9324679    6.1564468 
H     1.9837084   -4.1557878    5.1496089 
