110
Energy =
C     2.2545386    2.2101904    0.8509322 
C     2.6333296    1.9135396   -0.4744373 
C     1.9660270    2.4954453   -1.5970424 
H     3.3970349    1.1455446   -0.6516820 
Pd    0.5237810    1.2822170   -0.3491020 
P    -1.4572228    1.2125928   -1.6552350 
P    -0.1046175   -0.3321415    1.2468859 
H     1.6384238    3.1099239    1.0051551 
H     1.5691128    3.5125658   -1.4744537 
C     4.2977819    0.9683459    4.4136463 
C     3.4213879    2.0638226    4.4326534 
C     2.7333158    2.4269566    3.2696815 
C     2.9186919    1.7132379    2.0628210 
C     3.7851244    0.5937298    2.0662883 
C     4.4680889    0.2288072    3.2302531 
H     4.8408178    0.6841245    5.3209066 
H     3.2596235    2.6249185    5.3573948 
H     2.0497318    3.2827972    3.2875463 
H     3.9289241    0.0046426    1.1553147 
H     5.1418945   -0.6341185    3.2151552 
C     3.0623059    1.4229995   -5.6286523 
C     3.1045665    0.4567251   -4.6101826 
C     2.7456153    0.7985484   -3.3025107 
C     2.3389625    2.1141029   -2.9770696 
C     2.3188314    3.0781577   -4.0105904 
C     2.6722190    2.7353320   -5.3219069 
H     3.3369446    1.1549482   -6.6537898 
H     3.4095939   -0.5695239   -4.8396524 
H     2.7621647    0.0277090   -2.5243793 
H     2.0334968    4.1101161   -3.7783994 
H     2.6507043    3.4988866   -6.1062639 
Fe   -2.6870266   -2.6471582    0.3838057 
C    -1.8097906   -0.9742147    1.1988254 
C    -2.8507177   -0.5692168    0.2678611 
C    -4.0714292   -1.1994370    0.7137721 
C    -3.8123454   -1.9332365    1.9151788 
C    -2.4181520   -1.8131505    2.2113788 
C    -3.3450747   -4.5679406    0.5286607 
C    -3.6862449   -4.0241651   -0.7548745 
C    -2.4686620   -3.6560201   -1.4116999 
C    -1.3747201   -3.9536177   -0.5334338 
C    -1.9169225   -4.5215206    0.6655662 
C     0.0762233    0.1120355    3.0258857 
C     1.0458208   -0.4609789    3.8690665 
C     1.1431835   -0.0593927    5.2073041 
C     0.2871844    0.9292856    5.7096623 
C    -0.6833534    1.5100154    4.8757884 
C    -0.7871967    1.1017042    3.5435574 
C     0.9805497   -1.8085796    1.0239022 
C     0.8467739   -2.9594170    1.8275440 
C     1.6414503   -4.0859029    1.5904160 
C     2.5764358   -4.0771365    0.5421672 
C     2.7334935   -2.9313707   -0.2520344 
C     1.9403970   -1.8052765   -0.0043706 
C    -2.9243146    0.7104240   -0.5571719 
H    -5.0427586   -1.0913589    0.2256939 
H    -4.5381249   -2.5204310    2.4804105 
H    -1.9084339   -2.2579633    3.0674554 
H    -4.0491997   -4.9301790    1.2797400 
H    -4.6946574   -3.9083047   -1.1558787 
H    -2.3930546   -3.2427141   -2.4147489 
H    -0.3160035   -3.7913639   -0.7409720 
H    -1.3491950   -4.8584149    1.5333040 
H     1.7456797   -1.2086438    3.4887323 
H    -1.5536973    1.5499426    2.9038021 
H     0.1170992   -2.9847266    2.6404173 
H     2.0514902   -0.9079902   -0.6217273 
H    -3.7852361    0.6185103   -1.2407425 
C    -3.2542045    1.8080701    0.4923318 
H    -3.9815896    1.4056823    1.2158138 
H    -2.3472316    2.0991641    1.0502054 
H    -3.6927396    2.7087809    0.0414550 
C     0.4662973    1.4340703    7.1233458 
F    -0.6977107    1.8633755    7.6576320 
F     0.9772903    0.4845177    7.9374312 
F     1.3292004    2.4894239    7.1509728 
H     1.8991662   -0.5073715    5.8576369 
H    -1.3569970    2.2742632    5.2741216 
H     1.5373617   -4.9773854    2.2154933 
H     3.4739697   -2.9227502   -1.0573373 
C     3.3736777   -5.3243481    0.2224390 
F     2.7560745   -6.0512146   -0.7411098 
F     4.6092877   -5.0180893   -0.2351454 
F     3.5140576   -6.1210473    1.3042539 
C    -1.4219832   -0.1303361   -3.0296341 
C    -1.9828047    2.9504472   -2.3342120 
C    -2.8310046   -0.6918459   -3.3110206 
H    -2.7543643   -1.4606588   -4.1022810 
H    -3.2717584   -1.1684846   -2.4208468 
H    -3.5189400    0.0874816   -3.6804563 
C    -1.1460828    3.3269453   -3.5775624 
H    -1.2150771    4.4202322   -3.7219158 
H    -0.0849081    3.0700940   -3.4579579 
H    -1.5166548    2.8533387   -4.4960379 
C    -0.7934413    0.3483569   -4.3548440 
H    -0.5679487   -0.5483889   -4.9606414 
H    -1.4811702    0.9737476   -4.9428025 
H     0.1532683    0.8899635   -4.2055264 
C    -0.4971658   -1.2223602   -2.4504884 
H    -0.4886699   -2.0978938   -3.1253802 
H     0.5354761   -0.8447256   -2.3777157 
H    -0.8269734   -1.5564367   -1.4538574 
C    -3.4764190    3.0047967   -2.7225095 
H    -3.6962654    4.0053839   -3.1380261 
H    -3.7166217    2.2649225   -3.5044308 
H    -4.1602083    2.8481391   -1.8736598 
C    -1.6381787    4.0115850   -1.2566550 
H    -2.1555035    3.8729800   -0.2994069 
H    -0.5532736    4.0236970   -1.0565332 
H    -1.9199015    5.0066391   -1.6466664 
