124
Energy =
C    -0.7759893    0.2225744   -3.2067634 
C     0.4044961   -0.5564666   -3.1139933 
C     0.3865305   -1.8737960   -2.5712961 
H     1.3760418   -0.0869231   -3.3147802 
Pd   -0.3508086   -0.3986103   -1.0637707 
P    -0.0297696   -1.5794279    0.8968113 
P    -0.8936282    1.5020321    0.2232168 
H    -1.7329673   -0.3216127   -3.2274129 
H    -0.5240210   -2.4731166   -2.7183622 
C    -1.0753543    4.2426084   -4.7021989 
C    -2.2249647    3.4830609   -4.4429741 
C    -2.1096851    2.1834910   -3.9387725 
C    -0.8418052    1.6098693   -3.6898744 
C     0.3088653    2.3939843   -3.9451184 
C     0.1919431    3.6934173   -4.4466227 
H    -1.1643115    5.2590741   -5.0984932 
H    -3.2163185    3.9050632   -4.6352600 
H    -3.0120257    1.5931285   -3.7448234 
H     1.3081149    1.9828212   -3.7712117 
H     1.0945279    4.2796121   -4.6483015 
C     3.9432842   -4.1574901   -1.7428361 
C     3.9702836   -2.7569458   -1.6300322 
C     2.8223393   -2.0089417   -1.9113291 
C     1.6180712   -2.6433768   -2.2999340 
C     1.6056991   -4.0503076   -2.4083018 
C     2.7607167   -4.7978351   -2.1399416 
H     4.8339257   -4.7473190   -1.5065716 
H     4.8832468   -2.2464189   -1.3069072 
H     2.8511875   -0.9175966   -1.8044339 
H     0.6813897   -4.5598090   -2.7011670 
H     2.7334042   -5.8886203   -2.2240892 
Fe   -3.4223868   -1.6312014    0.9758701 
C    -1.5747295   -1.4874059    1.8280456 
C    -2.3436093   -0.2626867    2.0103872 
C    -3.5347360   -0.6303236    2.7360073 
C    -3.5217566   -2.0409826    2.9768057 
C    -2.3218587   -2.5785813    2.4160464 
C    -4.2424522   -3.0706396   -0.2435572 
C    -5.2581529   -2.2469526    0.3471380 
C    -5.0175075   -0.8858343   -0.0477268 
C    -3.8498858   -0.8675946   -0.8816521 
C    -3.3767220   -2.2170897   -1.0035183 
C     1.2685271   -0.9293974    2.0177247 
C     0.9971196   -0.6175580    3.3576428 
C     2.0087951   -0.0650739    4.1605520 
C     3.2982964    0.1294801    3.6535668 
C     3.5675398   -0.2022249    2.3154627 
C     2.5546044   -0.7021496    1.4919395 
C     0.3418777   -3.3731796    0.7645509 
C    -0.6335303   -4.1921565    0.1749176 
C    -0.3972132   -5.5617602   -0.0004973 
C     0.8222271   -6.1280073    0.3857426 
C     1.8057825   -5.3016261    0.9511715 
C     1.5726945   -3.9344556    1.1492478 
C    -2.0328689    1.1893538    1.7038724 
H    -4.3291730    0.0600833    3.0271392 
H    -4.3058766   -2.6148078    3.4734444 
H    -2.0199160   -3.6263288    2.4301565 
H    -4.1386016   -4.1507652   -0.1278514 
H    -6.0630104   -2.5913761    0.9988942 
H    -5.6125386   -0.0199201    0.2495036 
H    -3.3986581    0.0086254   -1.3495587 
H    -2.5131323   -2.5360510   -1.5889426 
H     0.0026906   -0.7931971    3.7793347 
H     2.7662605   -0.9219635    0.4430505 
H    -1.5884048   -3.7582276   -0.1283403 
H     2.3629773   -3.3203312    1.5869191 
H    -2.9706848    1.6022164    1.2950107 
C    -1.7372819    1.9916485    2.9904321 
H    -2.6096221    1.9206075    3.6618796 
H    -0.8687216    1.5955736    3.5371778 
H    -1.5709686    3.0579337    2.7642224 
C     1.6572332    0.3886379    5.5598215 
F     0.9841043    1.5804164    5.5102930 
F     0.8430570   -0.4897927    6.1821414 
F     2.7458437    0.5793629    6.3280366 
C     4.9753713   -0.0630712    1.7792241 
F     4.9918544    0.0093286    0.4202717 
F     5.5863859    1.0481292    2.2549354 
F     5.7377369   -1.1222748    2.1279290 
C    -1.4682124   -6.3771737   -0.6871270 
F    -1.1643307   -7.6843097   -0.7558314 
F    -2.6627732   -6.2577200   -0.0468463 
F    -1.6661262   -5.9262641   -1.9576029 
C     3.1360357   -5.9081784    1.3491927 
F     3.5738013   -6.7792188    0.4061381 
F     4.0905300   -4.9613867    1.5068340 
F     3.0404212   -6.5905914    2.5113513 
H     4.0816773    0.5473044    4.2906201 
H     1.0142180   -7.1918091    0.2246012 
C    -3.0143215    5.1682930   -1.6754040 
C    -3.7697483    4.0231447   -1.3514093 
C    -3.1034439    2.9251280   -0.7886878 
C    -1.7135179    2.9664485   -0.5347776 
C    -0.9829742    4.1106313   -0.8927511 
C    -1.6277576    5.2259230   -1.4656594 
H    -3.5222848    6.0334996   -2.1180052 
H    -3.6874299    2.0307433   -0.5434893 
H     0.0958976    4.1521050   -0.7154451 
C    -5.2519925    3.9701976   -1.6451789 
H    -5.4324745    3.9440494   -2.7363230 
H    -5.7232237    3.0755566   -1.2052035 
H    -5.7707995    4.8621282   -1.2527647 
C    -0.8232905    6.4511102   -1.8347143 
H    -0.4220195    6.9468485   -0.9319138 
H     0.0390892    6.1742598   -2.4669482 
H    -1.4324728    7.1868739   -2.3840391 
C     3.4599133    2.9820126    0.8862498 
C     2.6026101    3.0534250    1.9982924 
C     1.2670754    2.6210718    1.8610671 
C     0.8045785    2.1030592    0.6387237 
C     1.6985118    2.0329334   -0.4548205 
C     3.0252486    2.4781224   -0.3534356 
H     4.5006863    3.3071367    0.9947680 
H     0.6149390    2.6864702    2.7304906 
H     1.3409202    1.6296876   -1.4090579 
C     3.1035537    3.5944660    3.3189534 
H     4.1472046    3.2855713    3.4990006 
H     3.0838905    4.7003023    3.3206940 
H     2.4828893    3.2473527    4.1604978 
C     3.9590446    2.4193509   -1.5410655 
H     4.0968392    3.4237809   -1.9822859 
H     4.9537737    2.0478364   -1.2445772 
H     3.5664473    1.7572957   -2.3314301 
