112
Energy =
C     2.7576386   -1.6603378   -1.7252968 
C     2.7721245   -0.3144131   -2.1918086 
C     3.0269938    0.7525849   -1.2926641 
H     2.4338958   -0.1041220   -3.2148679 
Pd    1.2071359   -0.4385786   -0.6585358 
P    -0.1332017    1.2187011    0.3530445 
P    -0.0722010   -2.2182085    0.1187407 
H     3.3960762   -1.9009802   -0.8618261 
H     3.5574406    0.4908570   -0.3643780 
C     1.7027107   -5.0468025   -4.1656145 
C     0.9748338   -3.8497478   -4.2800189 
C     1.3180083   -2.7416415   -3.4994587 
C     2.3867156   -2.8100463   -2.5764303 
C     3.1031051   -4.0213678   -2.4643648 
C     2.7714442   -5.1255543   -3.2608365 
H     1.4345903   -5.9135731   -4.7784829 
H     0.1301395   -3.7841828   -4.9736541 
H     0.7296215   -1.8207890   -3.5761543 
H     3.9258613   -4.0949609   -1.7451715 
H     3.3441660   -6.0540925   -3.1660234 
C     3.0866433    4.9758889   -2.1291426 
C     3.4079350    4.4884618   -0.8522680 
C     3.4017471    3.1110558   -0.6069146 
C     3.0548478    2.1872129   -1.6225982 
C     2.7485743    2.6932547   -2.9063876 
C     2.7708918    4.0706269   -3.1552781 
H     3.0977540    6.0521955   -2.3282935 
H     3.6740761    5.1834726   -0.0490639 
H     3.6643813    2.7370238    0.3889049 
H     2.4947195    2.0089567   -3.7218688 
H     2.5419458    4.4417685   -4.1595540 
Fe   -3.2482050    0.6624284    2.0304352 
C    -1.8311810    0.5772799    0.5739744 
C    -2.0991427   -0.7427043    1.1379248 
C    -3.4931084   -1.0340355    0.9313604 
C    -4.0966846    0.0787219    0.2680558 
C    -3.0893013    1.0710805    0.0487778 
C    -3.9830620    0.1854465    3.8697857 
C    -2.7097375    0.8378754    3.9952102 
C    -2.8186420    2.1372837    3.3899300 
C    -4.1527951    2.2857185    2.8873063 
C    -4.8737907    1.0804486    3.1848788 
C    -1.0692411   -1.7067676    1.6611642 
H    -4.0111177   -1.9379979    1.2526126 
H    -5.1523222    0.1753718    0.0087833 
H    -3.2591813    2.0350283   -0.4279984 
H    -4.2306113   -0.8177638    4.2214483 
H    -1.8214594    0.4216571    4.4754370 
H    -2.0274653    2.8838418    3.3215669 
H    -4.5463069    3.1559348    2.3589817 
H    -5.9110756    0.8708993    2.9175072 
H    -0.3362133   -1.1678557    2.2875131 
C    -1.6620939   -2.8749305    2.4571229 
H    -2.2489690   -2.4741735    3.3022358 
H    -2.3367049   -3.4861301    1.8356367 
H    -0.8734861   -3.5319856    2.8557473 
H     0.7675554    3.0810934   -0.8362058 
C    -1.2566859    5.0082897   -1.3330266 
C    -1.1408714    3.9112050   -0.2572347 
C    -0.2769958    2.7261895   -0.7523270 
C    -0.7080825    2.2092564   -2.1540881 
C    -0.8693782    3.3440093   -3.1798611 
C    -1.7939971    4.4531481   -2.6591639 
H    -0.2561349    5.4520784   -1.5040761 
H    -1.9045942    5.8190532   -0.9541776 
H    -2.1503175    3.5685124    0.0284991 
H    -0.6944127    4.3456833    0.6487890 
H     0.0414070    1.4758504   -2.5093185 
H    -1.6653393    1.6621228   -2.0717638 
H     0.1231609    3.7784068   -3.3965430 
H    -1.2508055    2.9240553   -4.1282344 
H    -2.8156079    4.0501221   -2.5067849 
H    -1.8818388    5.2606826   -3.4075945 
H    -0.3018213    1.1450468    2.7185056 
C     1.1141708    3.1899033    3.9667862 
C     0.6736551    3.0603558    2.4949838 
C     0.5063898    1.5787759    2.0989563 
C     1.8145151    0.8043517    2.3793036 
C     2.2333344    0.9247977    3.8539471 
C     2.3966925    2.3976705    4.2601550 
H     0.2980748    2.8160547    4.6167849 
H     1.2502391    4.2574975    4.2157930 
H     1.4234631    3.5365808    1.8339863 
H    -0.2716622    3.6066771    2.3511750 
H     1.7034212   -0.2585923    2.0906128 
H     2.6173608    1.2118711    1.7366920 
H     1.4603858    0.4487360    4.4902035 
H     3.1716503    0.3661811    4.0224112 
H     3.2391081    2.8395662    3.6917154 
H     2.6610561    2.4771445    5.3294308 
C    -3.4613618   -3.4802072   -2.7859774 
C    -3.0555790   -4.3789148   -1.7871405 
C    -2.0128375   -4.0404044   -0.9134691 
C    -1.3601726   -2.7961320   -1.0432033 
C    -1.7761610   -1.8971239   -2.0470550 
C    -2.8233066   -2.2369441   -2.9123369 
H    -4.2760071   -3.7502832   -3.4659791 
H    -3.5534603   -5.3488618   -1.6860349 
H    -1.7054519   -4.7493198   -0.1382284 
H    -1.2774164   -0.9249292   -2.1365644 
H    -3.1401234   -1.5310470   -3.6870520 
C     2.6407978   -5.7493397    1.4370106 
C     2.5268822   -4.5940901    2.2288987 
C     1.6852052   -3.5502661    1.8285964 
C     0.9388472   -3.6515379    0.6314433 
C     1.0787193   -4.8014612   -0.1712572 
C     1.9209223   -5.8461165    0.2391970 
H     3.2955043   -6.5678566    1.7532180 
H     3.0935753   -4.5082511    3.1618022 
H     1.6089093   -2.6531225    2.4542024 
H     0.5464837   -4.8798034   -1.1235999 
H     2.0202191   -6.7336990   -0.3939329 
