124
Energy =
C    -0.0724297   -2.1420679   -2.1281750 
C     0.5854372   -1.0739974   -2.7877323 
C     1.8442828   -0.5929881   -2.3456106 
H     0.0759726   -0.5394636   -3.5991899 
Pd    0.2393128   -0.3639519   -0.7285190 
P     1.2331711    1.3883556    0.5119033 
P    -1.5028505   -0.6966811    0.8029077 
H     0.5622946   -2.8003519   -1.5172583 
H     2.4664983   -1.2829515   -1.7563070 
C    -3.6866292   -4.0803956   -3.4212944 
C    -2.9418783   -4.5905729   -2.3474464 
C    -1.7832795   -3.9331684   -1.9233086 
C    -1.3417184   -2.7487748   -2.5592067 
C    -2.1139743   -2.2388430   -3.6300759 
C    -3.2682878   -2.9016178   -4.0587641 
H    -4.5922700   -4.5969966   -3.7548934 
H    -3.2708523   -5.4992547   -1.8336903 
H    -1.2034842   -4.3441525   -1.0895967 
H    -1.7991652   -1.3312923   -4.1551288 
H    -3.8428724   -2.4988727   -4.8994828 
C     4.0648656    2.3402001   -4.5657240 
C     2.6692034    2.4598696   -4.4630374 
C     1.9360101    1.5280216   -3.7234836 
C     2.5841467    0.4657029   -3.0530967 
C     3.9923297    0.3789607   -3.1355171 
C     4.7228293    1.2946318   -3.9021435 
H     4.6364428    3.0635775   -5.1561772 
H     2.1506269    3.2830371   -4.9649360 
H     0.8480531    1.6270965   -3.6619739 
H     4.5112493   -0.4344717   -2.6158492 
H     5.8105644    1.1956702   -3.9765387 
Fe   -2.5709331    2.3141019   -0.4022330 
C    -2.2032612    0.9567685    1.0774674 
C    -1.4202715    2.1705537    1.2802736 
C    -2.3607230    3.2574897    1.3890749 
C    -3.6894343    2.7435926    1.2491883 
C    -3.6006802    1.3285040    1.0564140 
C    -3.5306209    3.4219436   -1.8169742 
C    -2.1286579    3.7304215   -1.8040679 
C    -1.4066666    2.5198739   -2.0805831 
C    -2.3626584    1.4691269   -2.2686092 
C    -3.6758394    2.0230166   -2.1029255 
C     0.0386360    2.3309114    1.6498524 
H    -2.0886286    4.3037466    1.5449381 
H    -4.6098238    3.3302889    1.2558610 
H    -4.4363042    0.6437876    0.9066423 
H    -4.3433850    4.1244141   -1.6240109 
H    -1.6950357    4.7133032   -1.6127421 
H    -0.3239554    2.4135762   -2.1392097 
H    -2.1236856    0.4269161   -2.4871832 
H    -4.6203063    1.4793223   -2.1671254 
H     0.2882013    3.3942777    1.4943028 
C     0.2576303    2.0070055    3.1479161 
H    -0.5858177    2.4173882    3.7294431 
H     0.3099851    0.9248473    3.3323016 
H     1.1858991    2.4607657    3.5229979 
C     4.4395418   -0.6406395    3.2509284 
C     3.5564663   -1.3733059    2.4375158 
C     2.6414347   -0.7054029    1.6214386 
C     2.5593472    0.7021989    1.5878274 
C     3.4531116    1.4653645    2.3920146 
C     4.3667058    0.7644195    3.2017049 
H     3.5691601   -2.4682575    2.4489575 
H     1.9538081   -1.2858405    0.9952759 
H     5.0499022    1.3477897    3.8316748 
C     3.3444141    4.7911092   -1.8189244 
C     1.9732245    4.9155426   -1.5382410 
C     1.3412420    3.8800158   -0.8245611 
C     2.0520278    2.7291493   -0.4386939 
C     3.4189973    2.6164189   -0.7634058 
C     4.0869032    3.6609141   -1.4224857 
H     3.8557000    5.6038786   -2.3487325 
H     0.2844347    3.9830058   -0.5592397 
H     3.9810583    1.7291928   -0.4539848 
C     5.4525256   -1.3342062    4.1318781 
H     5.6214653   -0.7776202    5.0692077 
H     5.1310656   -2.3581961    4.3845512 
H     6.4279341   -1.4098489    3.6148779 
C     3.5045594    2.9802120    2.4225756 
H     4.3536875    3.3468533    1.8173734 
H     2.6016075    3.4560691    2.0132991 
H     3.6544213    3.3399152    3.4549175 
C     1.1808826    6.1189035   -1.9997120 
H     1.8360479    6.9768070   -2.2226292 
H     0.6164588    5.8819035   -2.9217338 
H     0.4470849    6.4347249   -1.2377005 
C     5.5813084    3.6063242   -1.6449128 
H     5.8543745    3.9781798   -2.6467976 
H     6.1019633    4.2432926   -0.9048749 
H     5.9681584    2.5802657   -1.5391056 
C    -0.3109569   -2.1442265    5.0883751 
C    -1.2106101   -1.1072964    4.9103212 
C    -1.5760925   -0.6972568    3.6032654 
C    -1.0463301   -1.3242812    2.4781863 
H    -0.0107907   -2.4515375    6.0960040 
H    -1.6370102   -0.5886477    5.7747668 
H    -2.2679300    0.1424376    3.4806708 
C    -0.1672906   -2.4514145    2.6363316 
C     0.2219360   -2.8465286    3.9684010 
C     1.1090876   -3.9522583    4.1327409 
C     1.5723623   -4.6661993    3.0401136 
C     1.1576187   -4.3045751    1.7304320 
C     0.3093281   -3.2260742    1.5388071 
H     1.4069220   -4.2381248    5.1474721 
H     2.2451244   -5.5180229    3.1826181 
H     1.5057427   -4.8854789    0.8696121 
H    -0.0150598   -2.9568680    0.5294501 
C    -3.2138313   -2.9217648    1.0703756 
C    -2.9411407   -1.7521401    0.3659068 
C    -3.7871882   -1.3783835   -0.7225519 
C    -4.8936344   -2.1381015   -1.0479554 
H    -2.5795182   -3.2340672    1.9050465 
H    -3.5656717   -0.4662559   -1.2742940 
H    -5.5390280   -1.8322254   -1.8780794 
C    -5.1990864   -3.3382752   -0.3413898 
C    -4.3277363   -3.7426435    0.7320255 
C    -4.5991044   -4.9605271    1.4231066 
C    -5.6819525   -5.7476415    1.0656397 
C    -6.5435552   -5.3457654    0.0083654 
C    -6.3091725   -4.1644495   -0.6780714 
H    -3.9348316   -5.2656599    2.2393416 
H    -5.8805046   -6.6829845    1.5990004 
H    -7.3972938   -5.9761747   -0.2612300 
H    -6.9710882   -3.8559208   -1.4947499 
