106
Energy =
C    -1.8783406   -1.7952560   -2.0559134 
C    -0.6552312   -2.0643157   -2.7386777 
C     0.3306922   -2.8989410   -2.1511506 
H    -0.4123653   -1.4830907   -3.6374193 
Pd   -0.1532455   -1.1490620   -0.8091450 
P     1.9311553   -0.7829003    0.1379408 
P    -1.2305328    0.4188201    0.5340621 
H    -2.2650043   -2.5821881   -1.3905461 
H    -0.0135528   -3.6139862   -1.3878160 
C    -4.8410790    1.0482311   -3.3473158 
C    -3.4778799    1.3182193   -3.5558676 
C    -2.5087091    0.3975890   -3.1466347 
C    -2.8810643   -0.8130182   -2.5180648 
C    -4.2525487   -1.0652856   -2.3039942 
C    -5.2235164   -0.1452922   -2.7186302 
H    -5.5997655    1.7693304   -3.6691052 
H    -3.1700006    2.2551437   -4.0317519 
H    -1.4476162    0.6324890   -3.2853951 
H    -4.5573697   -1.9916932   -1.8064268 
H    -6.2824957   -0.3588980   -2.5414664 
C     4.1918218   -3.9177344   -3.7610487 
C     3.7179361   -4.5212855   -2.5853636 
C     2.4647555   -4.1684690   -2.0714836 
C     1.6580236   -3.2002402   -2.7145311 
C     2.1606543   -2.5838577   -3.8841754 
C     3.4072717   -2.9469374   -4.4050721 
H     5.1651638   -4.2020548   -4.1738974 
H     4.3210662   -5.2770355   -2.0715822 
H     2.0953683   -4.6547090   -1.1621883 
H     1.5715861   -1.8195208   -4.4005732 
H     3.7709044   -2.4667358   -5.3193253 
Fe    2.5548545    0.6652829    3.3177104 
C     1.9686630    0.5376535    1.3850633 
C     0.8502977    0.9401702    2.2314024 
C     1.2369664    2.1648022    2.8779299 
C     2.5594035    2.5180681    2.4580712 
C     3.0208071    1.5187540    1.5445890 
C     4.1871826    0.6656733    4.5408173 
C     2.9868661    0.8309346    5.3099996 
C     2.1508635   -0.3107233    5.0773906 
C     2.8281703   -1.1796045    4.1572395 
C     4.0898618   -0.5754846    3.8277521 
C    -0.5241511    0.3165025    2.2957613 
H     0.6212711    2.7162834    3.5911444 
H     3.1342106    3.3780688    2.8064157 
H     3.9890838    1.4952842    1.0427854 
H     5.0151127    1.3748973    4.4851547 
H     2.7428511    1.6858077    5.9432770 
H     1.1689552   -0.4774437    5.5237068 
H     2.4534436   -2.1281301    3.7689012 
H     4.8376451   -0.9818775    3.1464667 
H    -1.1655680    0.9611332    2.9219819 
C    -0.5670502   -1.1209422    2.8369391 
H    -0.1241610   -1.1399660    3.8440202 
H    -1.6023763   -1.4905493    2.9100839 
H     0.0102568   -1.8126804    2.1992586 
C     3.1446907   -0.2447231   -1.0906770 
C     4.1292883   -0.8864442   -1.8128335 
C     4.6274231    0.0701368   -2.7559251 
C     3.9067724    1.2198867   -2.5568839 
H     4.4380320   -1.9247748   -1.6999690 
H     5.4195813   -0.0833249   -3.4887148 
H     3.9201366    2.2086687   -3.0125635 
O     2.9955044    1.0448993   -1.5546798 
C     2.7011034   -2.2845549    0.7915903 
C     3.9912725   -2.7080467    1.0337437 
C     3.8937383   -4.0166749    1.6054121 
C     2.5526801   -4.3043196    1.6797880 
H     4.8992727   -2.1431820    0.8242697 
H     4.7135583   -4.6612340    1.9233050 
H     1.9834954   -5.1606937    2.0387430 
O     1.8165662   -3.2672834    1.1858407 
C    -0.1770141    4.7669573   -0.6024025 
C    -0.9709128    4.5477917    0.5420922 
C    -1.3166672    3.2265781    0.8702955 
C    -0.8859397    2.1514304    0.0654982 
C    -0.0924239    2.3994114   -1.0662908 
C     0.2771735    3.7122239   -1.4127045 
H     0.0998339    5.7957599   -0.8645894 
H    -1.9257894    3.0396532    1.7622788 
H     0.2611587    1.5570512   -1.6719730 
C    -5.8072753   -0.1918293    0.8651657 
C    -4.9349302   -1.2648028    1.1453274 
C    -3.5542069   -1.0455007    1.0332830 
C    -3.0470782    0.2245343    0.6758553 
C    -3.9393065    1.2642293    0.3696034 
C    -5.3328789    1.0656055    0.4616370 
H    -6.8895687   -0.3527750    0.9413264 
H    -2.8661959   -1.8818175    1.2035593 
H    -3.5607322    2.2344532    0.0343470 
C    -1.4210832    5.7106347    1.3986693 
H    -0.5543607    6.2123736    1.8667247 
H    -1.9469627    6.4701960    0.7933454 
H    -2.0999039    5.3834354    2.2032358 
C     1.1738107    3.9760453   -2.6018752 
H     2.2153492    4.1400787   -2.2667204 
H     1.1770179    3.1241905   -3.3017644 
H     0.8610281    4.8792609   -3.1527298 
C    -5.4851497   -2.6198679    1.5312565 
H    -4.6793412   -3.3536089    1.6982403 
H    -6.0844019   -2.5544315    2.4572281 
H    -6.1515185   -3.0153197    0.7431031 
C    -6.2779708    2.1887536    0.1002755 
H    -6.1675965    2.4539566   -0.9671711 
H    -7.3290780    1.9090799    0.2769865 
H    -6.0597422    3.0987044    0.6871372 
