112
Energy =
C     2.7994608   -1.6356339    0.2050823 
C     3.0360070   -0.4480383   -0.5249151 
C     2.8821196    0.8297937    0.0890472 
H     3.2340061   -0.5025232   -1.6030882 
Pd    0.9465490   -0.2971051    0.1000136 
P    -0.6480977    1.3905913    0.4178143 
P    -0.7217859   -1.9622279   -0.2317392 
H     2.8496223   -1.5602113    1.3019530 
H     3.0872481    0.8884350    1.1677403 
C     3.5566976   -5.6035136   -1.2484610 
C     3.3038327   -4.5691869   -2.1654825 
C     3.0095564   -3.2801659   -1.7108507 
C     2.9753555   -2.9955096   -0.3250941 
C     3.1946081   -4.0543403    0.5851618 
C     3.4882262   -5.3439554    0.1282642 
H     3.7957521   -6.6097135   -1.6077357 
H     3.3382707   -4.7699584   -3.2413627 
H     2.8043862   -2.4887497   -2.4394600 
H     3.1541860   -3.8537736    1.6616052 
H     3.6653613   -6.1482551    0.8491981 
C     3.4956201    4.5089079   -2.0677111 
C     2.8597449    3.4250508   -2.6977435 
C     2.6590016    2.2279294   -2.0039246 
C     3.0822528    2.0873867   -0.6625232 
C     3.7261199    3.1813419   -0.0446371 
C     3.9345021    4.3791353   -0.7420681 
H     3.6494043    5.4474408   -2.6096926 
H     2.5119407    3.5193479   -3.7317623 
H     2.1391939    1.3978086   -2.4946117 
H     4.0719836    3.0879416    0.9908707 
H     4.4393670    5.2149319   -0.2468716 
Fe   -1.0520214   -0.3467697    3.3712619 
C    -1.7156953    0.7008791    1.7340747 
C    -2.2742496   -0.6448077    1.7596191 
C    -3.0026390   -0.7851957    2.9953496 
C    -2.9001280    0.4338724    3.7344688 
C    -2.1075605    1.3471188    2.9699534 
C    -0.4772078   -0.8145250    5.2679754 
C    -0.3329285   -1.9552008    4.4084580 
C     0.5819804   -1.6055586    3.3583166 
C     0.9979916   -0.2498823    3.5699895 
C     0.3448917    0.2408852    4.7483751 
C    -2.3757579   -1.6870003    0.6701251 
H    -3.5360022   -1.6857719    3.3073590 
H    -3.3217336    0.6275511    4.7223208 
H    -1.8422824    2.3565561    3.2845953 
H    -1.1152440   -0.7547646    6.1514865 
H    -0.8332505   -2.9164950    4.5398037 
H     0.9158200   -2.2578912    2.5508459 
H     1.6872839    0.3113932    2.9387735 
H     0.4441536    1.2426992    5.1703968 
H    -2.5380549   -2.6495083    1.1816691 
C    -3.6238807   -1.4516319   -0.2134435 
H    -4.4712391   -1.1947456    0.4449967 
H    -3.4944282   -0.6285363   -0.9322102 
H    -3.8946061   -2.3559594   -0.7778854 
H    -2.1133312    0.5542135   -1.2091157 
C    -2.1130232    1.9495986   -3.5203371 
C    -1.1157097    2.0486338   -2.3522336 
C    -1.8001518    1.6029463   -1.0424403 
C    -3.0627314    2.4350213   -0.7388541 
C    -4.0450829    2.3713597   -1.9252470 
C    -3.3742032    2.7864642   -3.2455105 
H    -2.3935899    0.8879117   -3.6665825 
H    -1.6254075    2.2798179   -4.4555002 
H    -0.7553809    3.0878339   -2.2685370 
H    -0.2275669    1.4253022   -2.5430145 
H    -3.5492978    2.0687427    0.1835063 
H    -2.7762290    3.4883585   -0.5563955 
H    -4.4269343    1.3353831   -2.0203294 
H    -4.9213470    3.0108461   -1.7170214 
H    -3.0947569    3.8572975   -3.1916425 
H    -4.0890997    2.6894274   -4.0819239 
H    -1.2630270    3.4258919    1.4968092 
C     0.3385293    5.5363890    0.7317233 
C     0.1488739    4.1641709    0.0548910 
C    -0.2814376    3.1061747    1.0926993 
C     0.7294855    3.0362538    2.2560775 
C     0.9009731    4.4087309    2.9290464 
C     1.3219953    5.4789216    1.9105531 
H    -0.6446593    5.8972129    1.0943136 
H     0.6838500    6.2655605   -0.0230059 
H     1.0863617    3.8536371   -0.4356529 
H    -0.6136448    4.2616757   -0.7340502 
H     0.4063101    2.2829296    2.9905803 
H     1.7007351    2.6988548    1.8522985 
H    -0.0575904    4.7032169    3.4017760 
H     1.6433562    4.3319550    3.7442386 
H     2.3315362    5.2371823    1.5283552 
H     1.3929830    6.4678536    2.3974735 
C    -1.3852375   -2.1684423   -4.8418220 
C    -2.1707605   -2.9728735   -3.9994674 
C    -1.9959194   -2.9234310   -2.6110202 
C    -1.0420994   -2.0494114   -2.0442731 
C    -0.2416743   -1.2690394   -2.9011432 
C    -0.4117489   -1.3233555   -4.2916085 
H    -1.5256661   -2.2117933   -5.9268015 
H    -2.9174153   -3.6496734   -4.4275047 
H    -2.5852220   -3.5873266   -1.9711388 
H     0.5225948   -0.6187240   -2.4565503 
H     0.2150174   -0.7046343   -4.9420662 
C     0.0920906   -6.4269076    0.8633637 
C    -0.3592100   -5.5293544    1.8420982 
C    -0.6010869   -4.1901912    1.5096550 
C    -0.3886656   -3.7268324    0.1927726 
C     0.0802049   -4.6322890   -0.7809188 
C     0.3083460   -5.9735614   -0.4451685 
H     0.2719059   -7.4759402    1.1196518 
H    -0.5357736   -5.8728009    2.8668647 
H    -0.9755641   -3.5057155    2.2763289 
H     0.2579213   -4.2987357   -1.8061427 
H     0.6634711   -6.6646283   -1.2157477 
