86
Energy =
C    -0.3442720    3.4549521    0.1251748 
C     0.0486969    2.4575720    0.9705679 
C     1.2088016    1.5951576    0.7369790 
H    -0.5127796    2.2892637    1.8969592 
Pd    0.3962973   -0.2038988   -0.0654521 
P     1.9406991   -1.8217180    0.4688648 
P    -1.5600982    0.3185156   -1.2152721 
H     0.2548159    3.6186294   -0.7821296 
H     1.8070167    1.9067755   -0.1363514 
C    -3.8949920    5.8607437    0.3470204 
C    -3.5320198    5.0594006    1.4440806 
C    -2.3650753    4.2922360    1.4037628 
C    -1.5267652    4.3029189    0.2594643 
C    -1.8959261    5.1376335   -0.8253976 
C    -3.0679520    5.9009724   -0.7860725 
H    -4.8111484    6.4589622    0.3824118 
H    -4.1639463    5.0387391    2.3381135 
H    -2.0956522    3.6848648    2.2738063 
H    -1.2533315    5.1738901   -1.7130926 
H    -3.3353387    6.5333415   -1.6390132 
C     3.7487242    0.7399440    4.1347123 
C     2.3516849    0.6616266    4.2701523 
C     1.5192915    0.9145739    3.1737004 
C     2.0633018    1.2549734    1.9127651 
C     3.4701225    1.3200965    1.7897203 
C     4.3041100    1.0680313    2.8878970 
H     4.3977553    0.5468698    4.9947199 
H     1.9098078    0.3999503    5.2372134 
H     0.4332895    0.8348790    3.2929013 
H     3.9113950    1.5940832    0.8247408 
H     5.3908105    1.1377111    2.7718876 
Fe   -0.6837630   -3.0314968   -1.4331388 
C    -1.5140816   -1.2540858   -2.1412804 
C    -2.4566414   -2.3417018   -2.1980830 
H    -3.4254705   -2.3849180   -1.6985946 
C    -1.9041697   -3.3703209   -3.0299945 
H    -2.3805753   -4.3247824   -3.2615116 
C    -0.6103250   -2.9435424   -3.4798404 
H     0.0705031   -3.5152229   -4.1129268 
C    -0.3535051   -1.6553863   -2.9202449 
C     0.7850602   -3.1649939    0.0398118 
C     0.8945844   -4.2328031   -0.9202345 
H     1.7584533   -4.4514804   -1.5494183 
C    -0.3348245   -4.9704771   -0.9099805 
H    -0.5605522   -5.8373767   -1.5337279 
C    -1.2238098   -4.3589442    0.0355688 
H    -2.2436608   -4.6776746    0.2576924 
C    -0.5517642   -3.2374522    0.6088789 
H     0.5474540   -1.0571895   -3.0673135 
H    -0.9556162   -2.5617723    1.3654317 
C     2.7222567   -2.2738136    2.1133663 
C     3.9973022   -3.0427124    1.7050970 
C     4.6103446   -2.2940379    0.5113929 
C     3.5002982   -2.0929809   -0.5503000 
H     3.0259064   -1.2972908    2.5287648 
H     4.6983942   -3.1072255    2.5564773 
H     3.7363700   -4.0795307    1.4157943 
H     4.9770456   -1.3058620    0.8480101 
H     5.4695706   -2.8315029    0.0733313 
H     3.3457480   -3.0510100   -1.0785947 
C    -1.9251754    1.6704796   -2.4692723 
C    -3.4665065    1.7643831   -2.4666595 
C    -3.9250018    1.6478961   -1.0055161 
C    -3.2516068    0.3972972   -0.3866160 
H    -1.5287431    2.5794702   -1.9821782 
H    -3.7961771    2.7137683   -2.9254524 
H    -3.8904568    0.9400790   -3.0730533 
H    -3.6115968    2.5495394   -0.4475822 
H    -5.0231421    1.5754783   -0.9164236 
H    -3.7895922   -0.5008103   -0.7400052 
C    -3.1994748    0.3830366    1.1452289 
H    -2.6521397    1.2608109    1.5272679 
H    -4.2218644    0.4135951    1.5613771 
C    -1.2652444    1.4974915   -3.8387791 
H    -0.1651869    1.4476914   -3.7575919 
H    -1.6170993    0.5809534   -4.3432799 
C     1.7974094   -2.9757853    3.1088053 
H     0.9185715   -2.3519899    3.3477756 
H     2.3408073   -3.1607654    4.0520647 
C     3.7718314   -0.9876571   -1.5770642 
H     2.9557331   -0.9169845   -2.3164604 
H     4.7104421   -1.1929677   -2.1213314 
H    -1.5151955    2.3579552   -4.4842351 
H    -2.7011222   -0.5261433    1.5241682 
H     3.8696963   -0.0042489   -1.0856234 
H     1.4429794   -3.9466759    2.7211686 
