142
Energy =
C     3.4212664    1.1516066   -1.3215904 
C     3.2655865    1.9125765   -0.1460345 
C     3.3564495    1.2574428    1.1245131 
H     2.9889765    2.9719803   -0.2093673 
Pd    1.5837520    0.4858701    0.0139774 
P     0.8911291   -1.0666136    1.6260012 
P    -0.0999315    0.3215173   -1.6325963 
H     3.8345426    0.1390061   -1.1941320 
H     4.0121882    0.3784308    1.1714311 
C     3.4241846    2.4152665   -5.4152457 
C     3.7140601    1.0850627   -5.0739320 
C     3.7112951    0.6957892   -3.7308898 
C     3.4045609    1.6223690   -2.7038992 
C     3.1299741    2.9624984   -3.0647371 
C     3.1442659    3.3511344   -4.4057228 
H     3.4309452    2.7268764   -6.4649480 
H     3.9527205    0.3554028   -5.8544400 
H     3.9515017   -0.3387971   -3.4612260 
H     2.9127767    3.7063900   -2.2939050 
H     2.9385444    4.3920108   -4.6675164 
C     2.5850342    3.0525942    4.9544585 
C     2.0967177    3.6685762    3.7894840 
C     2.3452509    3.1036023    2.5350560 
C     3.1042480    1.9133368    2.4171507 
C     3.6078808    1.3193493    3.5977333 
C     3.3436376    1.8768542    4.8541774 
H     2.3700186    3.4885657    5.9345992 
H     1.4986044    4.5813849    3.8645454 
H     1.9283014    3.5808082    1.6409400 
H     4.2188456    0.4142305    3.5224942 
H     3.7339926    1.3895659    5.7527249 
Fe   -2.5580441   -3.9606286   -0.0105451 
C    -1.2918805   -2.4218295    0.3670832 
C    -1.6797558   -2.4197461   -1.0399656 
C    -3.1185936   -2.3374382   -1.0920797 
H    -3.7043230   -2.3172791   -2.0116335 
C    -3.6219116   -2.2482780    0.2421190 
H    -4.6717497   -2.1851529    0.5305442 
C    -2.5096963   -2.3077635    1.1411196 
H    -2.5902501   -2.3095749    2.2274975 
C    -1.7934840   -5.6419524    0.8707674 
H    -0.9161726   -5.6974646    1.5191459 
C    -1.7959286   -5.7884451   -0.5570834 
H    -0.9223931   -5.9919112   -1.1793735 
C    -3.1492959   -5.6428459   -1.0165962 
H    -3.4899105   -5.6967638   -2.0523141 
C    -3.9821274   -5.4142291    0.1301864 
H    -5.0606875   -5.2471115    0.1163283 
C    -3.1445623   -5.4124479    1.2967819 
H    -3.4734753   -5.2388649    2.3233968 
C    -0.8137470   -2.3842644   -2.2509300 
C    -0.0490252   -1.2367084   -2.6046677 
C     0.8504010   -1.3117729   -3.6906624 
H     1.4821638   -0.4509270   -3.9257201 
C     0.9387817   -2.4642273   -4.4798834 
H     1.6402687   -2.4963499   -5.3200337 
C     0.1125942   -3.5606694   -4.1966048 
H     0.1488207   -4.4587499   -4.8217322 
C    -0.7427388   -3.5143120   -3.0896317 
H    -1.3649592   -4.3751332   -2.8328653 
C     0.0128845    1.7407919   -2.8082559 
C    -0.1847603    1.6790010   -4.1970691 
H    -0.2840526    0.7141782   -4.7036362 
C    -0.3086212    2.8514348   -4.9651287 
C    -0.2500880    4.0992210   -4.3046545 
C    -0.0550577    4.1930195   -2.9062619 
C     0.0813708    3.0020308   -2.1796988 
H     0.2016862    3.0556028   -1.0887162 
C    -1.8431789    0.5853506   -1.1143089 
C    -2.1672065    0.8730911    0.2161821 
H    -1.3807081    0.8775090    0.9757490 
C    -3.4918701    1.1579628    0.5984871 
C    -4.4875448    1.1350728   -0.4000791 
C    -4.1810349    0.8820484   -1.7612863 
C    -2.8493467    0.6186296   -2.1016530 
H    -2.5941885    0.4326150   -3.1512065 
C     2.3973404   -1.7229284    2.4768823 
C     2.5242297   -1.8379238    3.8733638 
H     1.6924210   -1.5913377    4.5373015 
C     3.7432746   -2.2421894    4.4390678 
C     4.8509926   -2.5403046    3.6318967 
H     5.8020109   -2.8408903    4.0786549 
C     4.7230547   -2.4259201    2.2413383 
C     3.5100612   -2.0225297    1.6707749 
H     3.4445285   -1.9082607    0.5837984 
C    -0.1631876   -0.5529043    3.0453530 
C    -0.3158045    0.8155686    3.3383742 
H     0.2016274    1.5681520    2.7356221 
C    -1.1466668    1.2194745    4.3928868 
C    -1.8396767    0.2718512    5.1618960 
H    -2.5148814    0.5906238    5.9599614 
C    -1.6691000   -1.0887701    4.8836585 
C    -0.8232361   -1.5016408    3.8446572 
H    -0.6987695   -2.5736753    3.6663945 
C     0.0806114   -2.6548601    0.9593080 
H    -0.0553034   -3.2802901    1.8590767 
C     1.0575191   -3.3838069    0.0184942 
H     0.5115748   -4.2003795   -0.4791146 
H     1.4522727   -2.7185491   -0.7683354 
H     1.9020113   -3.8189973    0.5750538 
C    -1.3360265    2.6911210    4.7001457 
F    -0.5132077    3.1125493    5.6876957 
F    -1.0885256    3.4609149    3.6087483 
F    -2.6032658    2.9458485    5.0976579 
C    -2.4532546   -2.1491232    5.6255686 
F    -1.6565695   -3.1751794    6.0023801 
F    -3.0686619   -1.6651779    6.7191263 
F    -3.4132699   -2.6761976    4.8109050 
C     3.9005856   -2.2414253    5.9451579 
F     2.7164506   -2.4130804    6.5739909 
F     4.4112852   -1.0519524    6.3677359 
F     4.7438289   -3.2072235    6.3618484 
C     5.8843679   -2.6842021    1.3075757 
F     7.0296429   -2.9400058    1.9636329 
F     5.6283582   -3.7256250    0.4813651 
F     6.0931595   -1.5962546    0.5095313 
C    -0.5294497    2.7863738   -6.4574101 
H    -0.9741273    1.8220483   -6.7527016 
H    -1.1875223    3.6056298   -6.7897412 
H     0.4285085    2.8884467   -7.0022552 
C    -0.0078808    5.5434729   -2.2325228 
H    -0.1963524    5.4559390   -1.1500447 
H     0.9822640    6.0210328   -2.3634215 
H    -0.7543099    6.2235564   -2.6746557 
C    -3.8315094    1.4833247    2.0333933 
H    -3.1011405    2.1937862    2.4511197 
H    -4.8328781    1.9336656    2.1080055 
H    -3.8073553    0.5747495    2.6645525 
C    -5.2777993    0.9104292   -2.7987361 
H    -5.9332435    1.7844387   -2.6485440 
H    -4.8596830    0.9425737   -3.8176566 
H    -5.9203792    0.0127281   -2.7256314 
O    -0.4919197    5.2528125   -5.0200739 
O    -5.7937801    1.4355937   -0.0732242 
C     0.6346628    5.8907432   -5.6285173 
H     0.2399515    6.7554416   -6.1823605 
H     1.3563054    6.2466651   -4.8677951 
H     1.1538706    5.2127558   -6.3325289 
C    -6.5823944    0.3327015    0.3870002 
H    -6.1743328   -0.0913396    1.3252005 
H    -7.5923211    0.7269578    0.5744344 
H    -6.6369074   -0.4684315   -0.3755313 
