112
Energy =
C     2.0593748    2.6026107    0.1264488 
C     0.8337163    3.2782967    0.3566191 
C     0.0574754    3.0552323    1.5219754 
H     0.4211582    3.9152421   -0.4351837 
Pd    0.3617145    1.1187298    0.3079105 
P    -1.3532054   -0.3790287    0.8891946 
P     1.5218343   -0.4757494   -0.9616895 
H     2.5977826    2.2321353    1.0102238 
H     0.5775254    2.6416512    2.3992256 
C     4.6242445    3.2554022   -3.2663104 
C     5.1098095    2.6250809   -2.1113303 
C     4.2571637    2.3973807   -1.0237351 
C     2.9009530    2.7951494   -1.0690448 
C     2.4188164    3.4010414   -2.2532776 
C     3.2735231    3.6368301   -3.3333227 
H     5.2917060    3.4446376   -4.1133769 
H     6.1594357    2.3192203   -2.0503644 
H     4.6460877    1.9171378   -0.1195264 
H     1.3652257    3.6857473   -2.3361704 
H     2.8825487    4.1127061   -4.2381397 
C    -3.3296704    5.5090511    2.5433978 
C    -2.5662723    4.8863935    3.5422463 
C    -1.4918768    4.0593382    3.1919180 
C    -1.1528248    3.8394106    1.8368893 
C    -1.9458393    4.4580000    0.8416684 
C    -3.0172856    5.2859348    1.1915428 
H    -4.1679238    6.1586118    2.8143518 
H    -2.8034415    5.0509607    4.5983057 
H    -0.8883118    3.5911935    3.9779807 
H    -1.7240095    4.2891305   -0.2176969 
H    -3.6163038    5.7584664    0.4062824 
Fe    0.1210887   -3.4395113   -2.3915560 
C     0.7946540   -2.1536566   -0.9827565 
C    -0.6179386   -2.4554655   -0.7866576 
C    -0.7286680   -3.8797130   -0.5957988 
C     0.5783421   -4.4586996   -0.6833731 
C     1.5193745   -3.4082793   -0.9235039 
C    -1.2475405   -4.0211360   -3.7832334 
C    -0.7634698   -2.7008702   -4.0758829 
C     0.6592605   -2.7811002   -4.2585076 
C     1.0547392   -4.1460079   -4.0718417 
C    -0.1222904   -4.9141242   -3.7773827 
C     3.2124036   -0.8124805   -0.3286909 
C     3.4852510   -0.4831551    1.0149076 
C     4.7351371   -0.7665176    1.5818937 
C     5.7305979   -1.3837634    0.8104385 
C     5.4604099   -1.7416095   -0.5193413 
C     4.2067264   -1.4710282   -1.0847685 
C     1.6018409    0.1276702   -2.6969016 
C     2.7749598    0.2584997   -3.4613997 
C     2.7040260    0.7047917   -4.7898398 
C     1.4709000    1.0403227   -5.3640560 
C     0.3005968    0.9545833   -4.5928519 
C     0.3675353    0.5095930   -3.2679166 
C    -1.7314121   -1.4511126   -0.6509631 
H    -1.6560876   -4.4348585   -0.4500405 
H     0.8126806   -5.5225601   -0.6171502 
H     2.5971411   -3.5305426   -1.0270187 
H    -2.2846837   -4.2999302   -3.5872301 
H    -1.3677803   -1.7952212   -4.1487364 
H     1.3231783   -1.9454814   -4.4829490 
H     2.0744870   -4.5316195   -4.1244199 
H    -0.1544570   -5.9844739   -3.5657483 
H     2.7068129   -0.0051396    1.6197264 
H     4.0035191   -1.7894840   -2.1111477 
H     3.7529688    0.0502343   -3.0248051 
H    -0.5480173    0.4596324   -2.6678338 
H    -1.6522935   -0.7215806   -1.4755549 
C    -3.1231329   -2.1010075   -0.7245961 
H    -3.1779023   -2.7067354   -1.6458003 
H    -3.3228365   -2.7663633    0.1307457 
H    -3.9251667   -1.3485753   -0.7676374 
H     4.9303143   -0.5036060    2.6266159 
H     6.2270699   -2.2423410   -1.1196698 
H     3.6268950    0.8047291   -5.3699491 
H    -0.6654174    1.2376343   -5.0236386 
H     6.7113599   -1.5974033    1.2474875 
H     1.4216938    1.3846265   -6.4020473 
H    -3.6727702   -0.7101794    1.4374263 
C    -5.0299079    1.6325090    0.7882944 
C    -3.5978010    1.2099835    0.4168530 
C    -3.0374805    0.1972688    1.4413480 
C    -3.0683098    0.7880757    2.8655705 
C    -4.4999236    1.2176100    3.2389417 
C    -5.0888817    2.2002855    2.2152270 
H    -5.6999770    0.7536466    0.7065430 
H    -5.3964263    2.3794694    0.0611732 
H    -2.9378058    2.0968969    0.4102572 
H    -3.5768312    0.7908465   -0.6059926 
H    -2.7033721    0.0491975    3.5988655 
H    -2.3924237    1.6598040    2.9133290 
H    -5.1404721    0.3154449    3.2996981 
H    -4.4955236    1.6705463    4.2467423 
H    -4.5128344    3.1425712    2.2499110 
H    -6.1303505    2.4524054    2.4838825 
H     0.1026684   -2.1033125    1.5696560 
C    -0.9120063   -3.6288057    3.6046428 
C    -1.6534142   -2.6216668    2.7042071 
C    -0.6672106   -1.5673526    2.1595284 
C     0.0786151   -0.8415248    3.3040116 
C     0.8163103   -1.8601608    4.1903436 
C    -0.1500210   -2.9240306    4.7393412 
H    -0.1979170   -4.2020352    2.9810995 
H    -1.6313487   -4.3586706    4.0174370 
H    -2.4537548   -2.1243480    3.2842376 
H    -2.1422392   -3.1553767    1.8716066 
H     0.7890922   -0.1080021    2.8766331 
H    -0.6343234   -0.2635592    3.9200413 
H     1.6065195   -2.3526235    3.5891130 
H     1.3259225   -1.3363876    5.0192412 
H    -0.8769837   -2.4371496    5.4192739 
H     0.4011822   -3.6644830    5.3458844 
