124
Energy =
C     3.1134067   -0.7716837    0.0874092 
C     3.0466211    0.3396386   -0.7773312 
C     2.6717693    1.6357247   -0.3068371 
H     3.1805692    0.1818558   -1.8553203 
Pd    1.0052819    0.1827612    0.0405091 
P    -0.6419893    1.6629898    0.8005433 
P    -0.5256500   -1.5623702   -0.3017458 
H     3.1855782   -0.5579307    1.1653423 
H     2.9624533    1.9028224    0.7183019 
C     4.6338105   -4.6547644   -0.9635538 
C     4.6834646   -4.1950485    0.3608410 
C     4.1446989   -2.9453202    0.6916670 
C     3.5706879   -2.1159663   -0.2991262 
C     3.5241110   -2.5958568   -1.6303441 
C     4.0446411   -3.8522938   -1.9556203 
H     5.0492207   -5.6336831   -1.2229675 
H     5.1374267   -4.8144515    1.1409084 
H     4.1849933   -2.5930707    1.7286026 
H     3.0743538   -1.9829874   -2.4175713 
H     3.9983444   -4.2067715   -2.9905557 
C     2.0442107    4.9770251   -2.9627928 
C     1.8617328    3.6642919   -3.4300921 
C     2.0673614    2.5762251   -2.5767743 
C     2.4745128    2.7692193   -1.2350149 
C     2.6767297    4.0952343   -0.7878482 
C     2.4559250    5.1870609   -1.6383057 
H     1.8728327    5.8283710   -3.6292142 
H     1.5421029    3.4901221   -4.4629611 
H     1.8766345    1.5632828   -2.9476342 
H     3.0238028    4.2691715    0.2364211 
H     2.6169427    6.2047234   -1.2674170 
Fe   -1.2341974   -0.4227225    3.6337955 
C    -1.6574434    0.7929858    2.0290057 
C    -2.2215289   -0.5448996    1.8514304 
C    -3.1143633   -0.7672031    2.9648254 
C    -3.0955018    0.3797536    3.8203301 
C    -2.1960714    1.3364979    3.2571923 
C     0.5122943   -0.1185225    4.6832839 
C    -0.5500441   -0.4979426    5.5652331 
C    -1.0364337   -1.7796929    5.1463373 
C    -0.2779956   -2.1894974    4.0014646 
C     0.6766788   -1.1578103    3.7066056 
C    -2.1869474   -1.4279076    0.6130106 
H    -3.6876652   -1.6754401    3.1518364 
H    -3.6403467    0.4868384    4.7601616 
H    -1.9569792    2.3106706    3.6839206 
H     1.1006285    0.7944204    4.7578868 
H    -0.9349657    0.0945291    6.3971857 
H    -1.8604648   -2.3337843    5.5997289 
H    -0.4196399   -3.1177076    3.4523156 
H     1.3943254   -1.1561176    2.8844507 
H    -2.2482738    3.3507087    0.2632574 
C    -4.0361684    2.5380315   -1.6481474 
C    -3.1008354    1.6878920   -0.7666693 
C    -1.8682700    2.5095440   -0.3466218 
C    -1.1203001    3.0774486   -1.5689115 
C    -2.0586986    3.9019339   -2.4659190 
C    -3.2983880    3.0929438   -2.8785800 
H    -4.4367738    3.3784831   -1.0482601 
H    -4.9045016    1.9291372   -1.9581942 
H    -2.7845461    0.8046578   -1.3493664 
H    -3.6385395    1.3209096    0.1254029 
H    -0.2604418    3.6945004   -1.2536864 
H    -0.6951487    2.2335706   -2.1459756 
H    -2.3779540    4.8092675   -1.9164881 
H    -1.5030654    4.2512573   -3.3547155 
H    -2.9831474    2.2485365   -3.5240978 
H    -3.9800700    3.7146120   -3.4855861 
H     0.9026694    3.4319109    0.8132125 
C     1.9602991    3.7969737    3.3385428 
C     1.0491088    2.6697098    2.8254953 
C     0.2091744    3.1250736    1.6179702 
C    -0.6314179    4.3717340    1.9724203 
C     0.2888567    5.4992659    2.4839504 
C     1.1413846    5.0514704    3.6814227 
H     2.7124391    4.0461332    2.5641322 
H     2.5245976    3.4473873    4.2221360 
H     0.3625133    2.3601303    3.6313965 
H     1.6380805    1.7710223    2.5617032 
H    -1.1857110    4.7369024    1.0913651 
H    -1.3828358    4.1268023    2.7460382 
H     0.9543516    5.8159762    1.6565952 
H    -0.3230717    6.3792721    2.7509668 
H     0.4764652    4.8264633    4.5389039 
H     1.8075780    5.8705719    4.0055817 
H    -1.1884253   -0.0643956   -1.9994945 
C    -2.6247970   -1.1518460   -4.0353257 
C    -2.3157894   -1.7679471   -2.6562716 
C    -1.0185076   -1.1563332   -2.0799686 
C     0.1701940   -1.3287034   -3.0513846 
C    -0.1568801   -0.7175970   -4.4254573 
C    -1.4470992   -1.3151489   -5.0097353 
H    -2.8461408   -0.0738868   -3.9059826 
H    -3.5383367   -1.6136409   -4.4500276 
H    -2.2148103   -2.8620420   -2.7581762 
H    -3.1689665   -1.5906337   -1.9769889 
H     1.0649120   -0.8430128   -2.6198479 
H     0.4131359   -2.4012603   -3.1717691 
H    -0.2775852    0.3784934   -4.3097623 
H     0.6916848   -0.8728082   -5.1160158 
H    -1.2888026   -2.3923794   -5.2142481 
H    -1.6844434   -0.8418876   -5.9790327 
H     1.1484205   -3.1001066   -0.8350209 
C     0.2739853   -5.6875045   -1.2095974 
C    -0.5415878   -4.3803854   -1.1822580 
C     0.1791835   -3.3052623   -0.3363512 
C     0.5057363   -3.8228372    1.0780249 
C     1.2615654   -5.1623585    1.0473585 
C     0.5268048   -6.2171878    0.2089514 
H     1.2447217   -5.4991575   -1.7093398 
H    -0.2606923   -6.4374177   -1.8198033 
H    -1.5413561   -4.5931719   -0.7655505 
H    -0.6914220   -4.0214189   -2.2128504 
H     1.1004269   -3.0667768    1.6186866 
H    -0.4383750   -3.9594833    1.6350275 
H     2.2642730   -4.9956459    0.6172818 
H     1.4141687   -5.5173251    2.0827661 
H    -0.4419475   -6.4690410    0.6847957 
H     1.1136814   -7.1522465    0.1728743 
H    -2.7638230   -0.8617182   -0.1409592 
C    -2.9248060   -2.7634750    0.8082592 
H    -2.9513033   -3.3413230   -0.1272830 
H    -2.4561300   -3.3829618    1.5897264 
H    -3.9701465   -2.5731687    1.1039569 
