98
Energy =
C    -0.7737159   -2.8405740    0.5390030 
C    -1.4490230   -2.1428009    1.5717931 
C    -2.5237810   -1.2660664    1.2842042 
H    -1.0687196   -2.2051589    2.5984691 
Pd   -0.5794661   -0.5915223    0.2512379 
P    -1.1345977    1.6897774    0.0778899 
P     1.4559727   -0.6489732   -0.9450074 
H    -1.3282455   -2.9898838   -0.3989797 
H    -3.0530898   -1.4202612    0.3324822 
C     2.4555039   -5.6283752    1.0990222 
C     1.6813171   -5.6537181   -0.0704625 
C     0.6288948   -4.7442990   -0.2348237 
C     0.3340539   -3.7847644    0.7613927 
C     1.1243032   -3.7719105    1.9351052 
C     2.1672267   -4.6876015    2.1030173 
H     3.2777774   -6.3387013    1.2313465 
H     1.8925038   -6.3889148   -0.8537513 
H     0.0189821   -4.7785669   -1.1444948 
H     0.9367457   -3.0264363    2.7148101 
H     2.7671076   -4.6636327    3.0184471 
C    -4.8375899    0.8861109    4.2142789 
C    -3.5532312    0.4233231    4.5468635 
C    -2.7912338   -0.2810313    3.6089847 
C    -3.2915178   -0.5363789    2.3105066 
C    -4.5970222   -0.0856781    2.0016307 
C    -5.3607134    0.6193420    2.9404578 
H    -5.4307407    1.4391306    4.9495380 
H    -3.1437931    0.6125554    5.5445242 
H    -1.7948398   -0.6350465    3.8921514 
H    -5.0201945   -0.3046189    1.0149025 
H    -6.3691849    0.9552100    2.6782896 
Fe    1.5014156    2.6156410   -1.7893235 
C     2.3556333    0.9222231   -1.1576997 
C     2.4627151    1.9472095   -0.1413459 
H     2.0493339    1.8837676    0.8657140 
C     3.1789851    3.0586703   -0.6925557 
H     3.3924891    3.9979158   -0.1795662 
C     3.5351548    2.7352772   -2.0421827 
H     4.0679201    3.3843498   -2.7393501 
C     3.0406099    1.4221559   -2.3357196 
C    -0.4424057    2.6182837   -1.3258523 
C    -0.2400029    2.0622082   -2.6480927 
H    -0.5104253    1.0524549   -2.9595401 
C     0.3972450    3.0542682   -3.4621306 
H     0.7081871    2.9246001   -4.5001607 
C     0.5854150    4.2311666   -2.6666534 
H     1.0652261    5.1559563   -2.9917630 
C     0.0659614    3.9766676   -1.3550911 
H     3.1487496    0.9082207   -3.2917968 
H     0.0779052    4.6835661   -0.5242477 
C    -0.7256417    2.7349556    1.5966259 
C    -2.0660923    3.4206780    1.9806051 
C    -2.9338616    3.5708245    0.7213443 
C    -2.9432251    2.2000392    0.0169642 
H    -0.0021073    3.4919704    1.2436590 
H    -2.5978925    2.7783409    2.7083617 
H    -1.8821792    4.3909462    2.4729510 
H    -3.9636427    3.8840031    0.9715986 
H    -2.5158449    4.3401101    0.0439047 
H    -3.4621248    1.4849241    0.6787205 
C     1.3167860   -1.3129177   -2.7066541 
C     2.4720248   -2.3468107   -2.8423701 
C     3.5623460   -2.0595666   -1.7952688 
C     2.8496376   -1.8070893   -0.4501847 
H     1.5054251   -0.4384088   -3.3544914 
H     2.0600324   -3.3559973   -2.6536057 
H     2.8801890   -2.3496928   -3.8675784 
H     4.2630528   -2.9088193   -1.7138380 
H     4.1601792   -1.1722402   -2.0771655 
H     2.3555971   -2.7440640   -0.1401170 
C     3.7152249   -1.2882679    0.7093062 
H     4.1400622   -0.3027133    0.4415771 
H     3.0622671   -1.1214293    1.5880138 
C     4.8505300   -2.2495807    1.0901716 
H     5.3969451   -1.8763868    1.9732850 
H     4.4575906   -3.2533572    1.3280789 
H     5.5801699   -2.3571669    0.2689772 
C    -0.0725995   -1.8774226   -3.0596529 
H    -0.2644266   -2.7701655   -2.4363584 
H    -0.8527342   -1.1419128   -2.7837132 
C    -0.2087430   -2.2420671   -4.5439084 
H    -1.2194168   -2.6260071   -4.7645694 
H    -0.0337038   -1.3588669   -5.1848418 
H     0.5176377   -3.0196338   -4.8377183 
C    -0.0781804    1.9290619    2.7379703 
H     0.8165758    1.4009819    2.3577897 
H    -0.7831127    1.1397429    3.0519208 
C     0.3065254    2.7947214    3.9446444 
H     0.7984873    2.1863887    4.7230602 
H     1.0059826    3.5989923    3.6518393 
H    -0.5797463    3.2689326    4.4007835 
C    -3.5841758    2.1647079   -1.3766989 
H    -3.0273011    2.8379223   -2.0550612 
H    -4.6021393    2.5905846   -1.2899405 
C    -3.6718398    0.7584009   -1.9839552 
H    -4.3048670    0.0954917   -1.3674167 
H    -4.1037116    0.7865781   -2.9983617 
H    -2.6737605    0.2861486   -2.0541542 
