106
Energy =
C    -1.8077516   -2.1515439   -1.7850998 
C    -0.5304607   -2.3594167   -2.3823998 
C     0.4973761   -3.0470194   -1.6911133 
H    -0.2898527   -1.8531841   -3.3259215 
Pd   -0.1823266   -1.2222241   -0.5405490 
P     1.9107699   -0.6377771    0.2865201 
P    -1.2026140    0.5416342    0.5980569 
H    -2.1351393   -2.8947963   -1.0424367 
H     0.1923250   -3.7627461   -0.9122794 
C    -5.0335746    0.0392971   -3.6139558 
C    -3.7075470    0.3035673   -3.9961883 
C    -2.6488756   -0.3926252   -3.4040756 
C    -2.8929116   -1.3831159   -2.4235746 
C    -4.2326528   -1.6467852   -2.0619198 
C    -5.2911520   -0.9404695   -2.6446303 
H    -5.8593644    0.5907137   -4.0748904 
H    -3.4988256    1.0622024   -4.7572187 
H    -1.6203794   -0.1514530   -3.6942401 
H    -4.4430083   -2.4243968   -1.3208503 
H    -6.3209670   -1.1595740   -2.3439980 
C     4.5336767   -3.5821449   -3.0781282 
C     3.7942398   -2.4667464   -3.5066468 
C     2.4785132   -2.2851605   -3.0713646 
C     1.8760710   -3.2114436   -2.1875069 
C     2.6329559   -4.3246114   -1.7617220 
C     3.9459998   -4.5123796   -2.2088627 
H     5.5636035   -3.7240087   -3.4216242 
H     4.2464339   -1.7324218   -4.1813965 
H     1.9228758   -1.4018722   -3.3993370 
H     2.1829882   -5.0486998   -1.0739550 
H     4.5149554   -5.3839450   -1.8697517 
Fe    2.3977581    0.2493396    3.6749431 
C     1.9887693    0.4872845    1.7123809 
C     0.8647871    0.9591704    2.5107377 
C     1.3737125    1.9899110    3.3791782 
C     2.7719650    2.1736455    3.1174569 
C     3.1592979    1.2498691    2.0947711 
C     2.8727217    0.1099983    5.6611552 
C     1.7562671   -0.7369075    5.3576736 
C     2.1677727   -1.6706241    4.3482204 
C     3.5438448   -1.4036252    4.0330104 
C     3.9776526   -0.3046885    4.8449174 
C    -0.5990230    0.5903654    2.3912479 
H     0.7820364    2.5319843    4.1198182 
H     3.4355752    2.8650979    3.6400615 
H     4.1577413    1.1272721    1.6715830 
H     2.8739592    0.9398912    6.3702299 
H     0.7684381   -0.6708676    5.8167209 
H     1.5495028   -2.4428639    3.8896824 
H     4.1489705   -1.9295021    3.2930532 
H     4.9657033    0.1588918    4.8211168 
H    -1.1893536    1.3900801    2.8729692 
C    -0.9602867   -0.7614266    3.0377688 
H    -0.6789216   -0.7374493    4.1009808 
H    -2.0412298   -0.9670324    2.9690982 
H    -0.4067429   -1.5846349    2.5528663 
C     2.7155755    0.3101929   -1.0275185 
C     2.1628050    1.0693471   -2.0389432 
C     3.2531940    1.7031678   -2.7164644 
C     4.3949377    1.2928108   -2.0728992 
H     1.0980908    1.1686398   -2.2559132 
H     3.1960967    2.3762560   -3.5718638 
H     5.4560851    1.4911173   -2.2185708 
O     4.0860874    0.4565239   -1.0399891 
C     3.0533532   -1.9967488    0.6370536 
C     4.3971520   -2.2366817    0.4446861 
C     4.6681874   -3.5151439    1.0317590 
C     3.4762799   -3.9690622    1.5384678 
H     5.0949644   -1.5761611   -0.0656303 
H     5.6255657   -4.0355229    1.0624673 
H     3.1760587   -4.8726920    2.0667793 
O     2.4835229   -3.0617381    1.3042068 
C     0.0005929    4.1980193   -1.9575402 
C    -1.0662752    3.3678023   -2.3536409 
C    -1.4381585    2.3072908   -1.5081160 
C    -0.7689059    2.0903589   -0.2835315 
C     0.2792657    2.9483904    0.0970803 
C     0.6816620    4.0042633   -0.7420460 
H     0.3037811    5.0235959   -2.6130672 
H    -2.2629814    1.6491106   -1.8022625 
H     0.8081113    2.7993415    1.0394704 
C    -5.7869116    0.5803403    1.1887726 
C    -5.1216019    1.8091828    1.0333484 
C    -3.7265584    1.7957568    0.8359348 
C    -3.0248362    0.5781873    0.7844925 
C    -3.7186082   -0.6384647    0.9360946 
C    -5.1063866   -0.6528212    1.1487225 
H    -6.8732414    0.5818807    1.3404098 
H    -3.1900251    2.7434045    0.7139841 
H    -3.1680515   -1.5845567    0.8758881 
C    -1.7850006    3.5895767   -3.6671404 
H    -2.8733921    3.4495414   -3.5554318 
H    -1.6025366    4.6023605   -4.0617172 
H    -1.4392642    2.8666489   -4.4301465 
C     1.8602313    4.8706264   -0.3596986 
H     2.7922696    4.4447611   -0.7785429 
H     1.7574451    5.8962952   -0.7516460 
H     1.9850685    4.9225297    0.7346962 
C    -5.8702007    3.1226561    1.0902159 
H    -5.6038271    3.7687773    0.2352848 
H    -6.9612372    2.9680093    1.0800544 
H    -5.6162135    3.6794543    2.0110640 
C    -5.8640917   -1.9540899    1.2880130 
H    -6.5131058   -1.9459680    2.1811237 
H    -6.5202966   -2.1207912    0.4132702 
H    -5.1809745   -2.8158079    1.3683982 
