106
Energy =
C    -3.2411881   -0.9152009   -1.3764155 
C    -2.9923252   -1.5222369   -0.1144157 
C    -2.9369969   -0.7328997    1.0680924 
H    -2.6696768   -2.5702208   -0.0691937 
Pd   -1.4184159   -0.0246070   -0.4189712 
P     0.1802215    0.8634245    1.0234122 
P    -0.3594163    0.5825268   -2.3673508 
H    -3.8208387    0.0203956   -1.3710494 
H    -3.5201746    0.2015682    1.0733080 
C    -3.0571491   -2.7963485   -5.2427951 
C    -2.5123229   -3.4512849   -4.1256809 
C    -2.5628853   -2.8548763   -2.8628563 
C    -3.1750133   -1.5924963   -2.6843405 
C    -3.7235471   -0.9478962   -3.8168241 
C    -3.6612657   -1.5411715   -5.0832709 
H    -3.0111253   -3.2651015   -6.2311451 
H    -2.0374783   -4.4304136   -4.2435228 
H    -2.1097033   -3.3701865   -2.0101107 
H    -4.2015033    0.0298534   -3.6989736 
H    -4.0933722   -1.0236577   -5.9460997 
C    -1.9734275   -2.2007079    4.9946704 
C    -1.3634930   -2.7786732    3.8680822 
C    -1.6697198   -2.3126085    2.5862326 
C    -2.5841340   -1.2498319    2.4038317 
C    -3.1707404   -0.6626320    3.5453210 
C    -2.8784746   -1.1428876    4.8275415 
H    -1.7382578   -2.5708609    5.9979908 
H    -0.6430091   -3.5941809    3.9904099 
H    -1.1748812   -2.7598254    1.7184703 
H    -3.8602440    0.1797189    3.4230470 
H    -3.3494529   -0.6792537    5.7002119 
Fe    3.0704211    1.1677807   -2.0099152 
C     1.1152493    1.6250594   -2.2388988 
C     1.6561437    2.2869665   -1.0535018 
C     2.7489428    3.1117219   -1.5178882 
C     2.8803416    2.9712602   -2.9366340 
C     1.8854445    2.0503838   -3.3879374 
C     3.8043436   -0.4857302   -2.9477972 
C     4.8277109    0.5104488   -2.7939419 
C     4.9765183    0.7830977   -1.3906805 
C     4.0501441   -0.0470879   -0.6762729 
C     3.3284623   -0.8284132   -1.6380654 
C     1.0978056    2.3792374    0.3550946 
H     3.3903109    3.7314551   -0.8909556 
H     3.6387848    3.4515216   -3.5574092 
H     1.7268120    1.7138487   -4.4140059 
H     3.4369371   -0.8966631   -3.8898524 
H     5.3764941    0.9979188   -3.6019213 
H     5.6611460    1.5102437   -0.9500806 
H     3.9099202   -0.0798059    0.4041391 
H     2.5367914   -1.5396898   -1.4167897 
H     0.2573377    3.1025210    0.3081724 
C     2.1280232    2.9199901    1.3630839 
H     2.4009954    3.9575594    1.1083121 
H     1.7140391    2.9315765    2.3848699 
H     3.0450889    2.3082074    1.3473491 
C    -1.4665067    1.5269116   -3.4428987 
C    -2.5593559    2.3096129   -3.1315954 
C    -2.9987947    2.9081001   -4.3561985 
C    -2.1430977    2.4544722   -5.3291027 
H    -2.9943652    2.4327715   -2.1392557 
H    -3.8411822    3.5851642   -4.4979892 
H    -2.0698440    2.6175663   -6.4035897 
O    -1.2028500    1.6256992   -4.7903039 
C     0.1141630   -0.8552495   -3.3639760 
C     0.2429253   -1.1233872   -4.7102156 
C     0.7461093   -2.4604019   -4.8141548 
C     0.8862510   -2.9204359   -3.5292415 
H    -0.0053388   -0.4404529   -5.5204341 
H     0.9636126   -3.0129845   -5.7283101 
H     1.2203860   -3.8622364   -3.0963392 
O     0.5029039   -1.9630754   -2.6365784 
C    -1.8986774    2.6773656    4.7451231 
C    -2.2068486    3.1552270    3.4570378 
C    -1.5443685    2.5795491    2.3582875 
C    -0.5945208    1.5533759    2.5401374 
C    -0.3365839    1.0687940    3.8342137 
C    -0.9760037    1.6364596    4.9528225 
H    -2.4061950    3.1203253    5.6104745 
H    -1.7859173    2.9320633    1.3466377 
H     0.3420186    0.2242875    3.9830173 
C     3.1341027   -2.4906700    2.2170782 
C     3.2359923   -1.2589972    2.8968734 
C     2.3555468   -0.2213792    2.5434367 
C     1.3850722   -0.4138221    1.5359049 
C     1.3057847   -1.6563523    0.8821191 
C     2.1826671   -2.7077796    1.2061015 
H     3.8210939   -3.3025493    2.4855524 
H     2.4294194    0.7343516    3.0687999 
H     0.5546120   -1.7971763    0.0938656 
C    -3.2337771    4.2468847    3.2473545 
H    -2.8199388    5.0730536    2.6423444 
H    -4.1177796    3.8585955    2.7082240 
H    -3.5808390    4.6651434    4.2057687 
C    -0.6612567    1.1401973    6.3460053 
H     0.1730025    1.7188357    6.7857984 
H    -1.5277983    1.2500190    7.0193856 
H    -0.3625852    0.0788483    6.3331590 
C     4.2755842   -1.0648759    3.9783480 
H     4.1453552   -1.8048452    4.7882997 
H     5.2948575   -1.2022889    3.5745359 
H     4.2164788   -0.0576936    4.4218777 
C     2.1241080   -4.0149175    0.4472978 
H     2.4269882   -4.8670031    1.0780764 
H     1.1093625   -4.2099496    0.0599921 
H     2.8118299   -3.9859867   -0.4198459 
