94
Energy =
C    -1.0905652    1.2091738    1.5923780 
C     0.1757136    1.4635141    2.2624961 
C     0.9002049    2.6129387    2.1015732 
H     0.5406010    0.6919965    2.9509935 
Pd   -0.5307308    0.0269665   -0.0831197 
P     1.7318365   -0.5210635   -0.0350966 
P    -2.4485159   -0.1777626   -1.3316598 
H    -1.5060524    2.0913163    1.0791622 
H     0.4984736    3.3762811    1.4211387 
C    -4.1584498   -1.1584604    3.4915940 
C    -2.8080398   -1.5128358    3.6524629 
C    -1.8039648   -0.7556495    3.0416203 
C    -2.1279982    0.3665395    2.2399994 
C    -3.4935107    0.7028832    2.0804698 
C    -4.4961717   -0.0456085    2.7062830 
H    -4.9425647   -1.7420857    3.9850077 
H    -2.5380316   -2.3761156    4.2699202 
H    -0.7549595   -1.0333057    3.1877562 
H    -3.7629375    1.5723141    1.4712171 
H    -5.5444362    0.2415903    2.5822886 
C     4.6044389    3.7090709    3.9715602 
C     4.0777852    2.4211374    4.1773117 
C     2.8752651    2.0452247    3.5770376 
C     2.1608734    2.9505328    2.7511223 
C     2.7083606    4.2432160    2.5557870 
C     3.9140324    4.6193248    3.1576020 
H     5.5469582    3.9996204    4.4471631 
H     4.6146928    1.7066883    4.8101629 
H     2.4916235    1.0327558    3.7365817 
H     2.1672004    4.9599103    1.9275158 
H     4.3140838    5.6256980    2.9954581 
Fe    0.1653304   -1.8329852   -2.7912450 
C     1.7512249   -0.9419350   -1.8137714 
C     1.2084481   -0.0662669   -2.8361682 
H     0.7990806    0.9321299   -2.6679460 
C     1.3134014   -0.7425328   -4.0908534 
H     0.9815695   -0.3553742   -5.0559050 
C     1.8922694   -2.0356114   -3.8552495 
H     2.0786255   -2.7997349   -4.6123858 
C     2.1566793   -2.1659312   -2.4519415 
C    -1.8096457   -1.6378961   -2.2239025 
C    -1.1874915   -2.7682562   -1.5593666 
H    -1.1111351   -2.9085941   -0.4796771 
C    -0.7243418   -3.6677525   -2.5681169 
H    -0.2024252   -4.6099837   -2.3926217 
C    -1.0326545   -3.0987893   -3.8500950 
H    -0.7849848   -3.5355642   -4.8194172 
C    -1.6929752   -1.8428802   -3.6437868 
H     2.5893533   -3.0309438   -1.9481901 
H    -2.0420524   -1.1548388   -4.4152633 
C     2.1903098   -2.0264673    0.8287882 
C     1.4287214   -2.8582586    1.6242690 
C     2.2677624   -3.9569688    1.9892490 
C     3.4927529   -3.7361047    1.3962077 
H     0.3871320   -2.6914840    1.9013460 
H     2.0061868   -4.8082472    2.6177326 
O     3.4537108   -2.5665773    0.6822743 
C     4.7831871   -4.4804551    1.3909358 
H     5.0859276   -4.7414831    0.3611548 
H     5.5931067   -3.8714214    1.8314872 
H     4.6835242   -5.4072858    1.9755920 
C     3.1222745    0.5960947    0.2178626 
C     4.3208314    0.5408967    0.8971072 
C     4.9404101    1.8171873    0.7214000 
C     4.0910826    2.5745689   -0.0549931 
H     4.7048426   -0.3170195    1.4469380 
H     5.8982185    2.1440033    1.1248759 
O     2.9747537    1.8395088   -0.3619540 
C     4.1678616    3.9478471   -0.6258860 
H     4.3400684    3.9173760   -1.7178793 
H     3.2300406    4.5006959   -0.4471202 
H     4.9962903    4.4999193   -0.1568910 
C    -4.1136413   -0.6411592   -0.8156520 
C    -5.3550382   -0.0367854   -0.8300360 
C    -6.2437599   -0.9368115   -0.1622139 
C    -5.4955087   -2.0269423    0.2289597 
H    -5.5937366    0.9326844   -1.2667603 
H    -7.3121354   -0.8006083    0.0065451 
C    -2.7374373    1.0823002   -2.5830193 
C    -3.6662525    1.2759294   -3.5863256 
C    -3.2658567    2.4542350   -4.2894651 
C    -2.1149051    2.9109021   -3.6819217 
H    -4.5282888    0.6401204   -3.7904934 
H    -3.7659891    2.9149601   -5.1416063 
O    -4.1946431   -1.8491815   -0.1630033 
O    -1.7871521    2.0840728   -2.6425296 
C    -5.8131700   -3.3020994    0.9286487 
H    -5.6667522   -4.1686838    0.2583961 
H    -5.1566929   -3.4388277    1.8054967 
H    -6.8608417   -3.2940601    1.2653925 
C    -1.2142283    4.0729363   -3.9232682 
H    -1.1830602    4.7394514   -3.0425683 
H    -0.1810231    3.7378973   -4.1268413 
H    -1.5723735    4.6512789   -4.7881154 
