124
Energy =
C     2.8018652   -0.8365912   -1.6823274 
C     2.9710115    0.5834924   -1.7328212 
C     3.1736200    1.3331864   -0.5589283 
H     2.8597821    1.0941683   -2.6981390 
Pd    1.1272818    0.1323615   -0.5942039 
P    -0.3478785    1.6853138    0.4314678 
P    -0.1260450   -1.8155328   -0.0719054 
H     3.3202848   -1.3666456   -0.8693449 
H     3.4578730    0.7676643    0.3412481 
C     2.2659579   -3.1299641   -5.2901985 
C     1.5172934   -1.9581302   -5.0876868 
C     1.6890383   -1.2070181   -3.9200295 
C     2.6063347   -1.6163479   -2.9264226 
C     3.3641663   -2.7860212   -3.1498073 
C     3.1951673   -3.5364920   -4.3208557 
H     2.1272510   -3.7204504   -6.2015750 
H     0.7905087   -1.6347202   -5.8404227 
H     1.0857048   -0.3072493   -3.7550693 
H     4.0907006   -3.1081874   -2.3957423 
H     3.7899058   -4.4427208   -4.4753476 
C     4.0353195    5.5332051   -0.2134776 
C     4.2670472    4.6574757    0.8575521 
C     3.9742520    3.2953914    0.7251047 
C     3.4473533    2.7741649   -0.4802721 
C     3.2610089    3.6647686   -1.5645625 
C     3.5398173    5.0273886   -1.4276031 
H     4.2573291    6.6003190   -0.1115495 
H     4.6807074    5.0363998    1.7977472 
H     4.1622470    2.6161589    1.5634686 
H     2.9015680    3.2909907   -2.5254342 
H     3.3816710    5.6997912   -2.2771504 
Fe   -2.4813590    0.6205469    3.3107736 
C    -1.6935154    0.9038298    1.4064507 
C    -1.7655090   -0.5090601    1.7601957 
C    -3.1435009   -0.8175711    2.0455541 
C    -3.9238155    0.3742032    1.9024200 
C    -3.0378554    1.4367708    1.5390206 
C    -2.2474338    2.0581404    4.7628561 
C    -3.5469348    1.4604591    4.8372479 
C    -3.3756291    0.0516672    5.0524047 
C    -1.9690450   -0.2212995    5.1150082 
C    -1.2723988    1.0179036    4.9387875 
C    -0.6597779   -1.5323201    1.7211118 
H    -3.5192623   -1.7918111    2.3645264 
H    -4.9947474    0.4683161    2.0919395 
H    -3.3346884    2.4722795    1.3660538 
H    -2.0428708    3.1187044    4.6153447 
H    -4.5000731    1.9800455    4.7229628 
H    -4.1761697   -0.6869008    5.1264777 
H    -1.5156271   -1.2024347    5.2670206 
H    -0.1903114    1.1493322    4.9609669 
H    -2.0164966    3.2936417   -0.1244944 
C    -1.5367528    1.2143487   -2.8826817 
C    -2.2839723    1.8446199   -1.7009695 
C    -1.3706116    2.7032677   -0.7967335 
C    -0.5333937    3.6978177   -1.6355623 
C     0.1744980    3.0419074   -2.8293621 
C    -0.8036702    2.2679696   -3.7198809 
H    -2.2375771    0.6322332   -3.5045722 
H    -0.7873758    0.4988634   -2.4824442 
H    -2.8001832    1.0710630   -1.1051060 
H    -3.0773473    2.5118721   -2.0912383 
H    -1.2357157    4.4651325   -2.0159237 
H     0.1972110    4.2362973   -1.0062707 
H     0.7170039    3.8103980   -3.4076084 
H     0.9286704    2.3281485   -2.4438509 
H    -0.2649267    1.7900810   -4.5584998 
H    -1.5359957    2.9659731   -4.1710079 
H     1.1756470    3.5046457    0.8167601 
C     1.8719183    3.3823915    3.5945134 
C     1.2283251    2.3532100    2.6485628 
C     0.4508926    3.0110471    1.4930332 
C    -0.5558842    4.0555857    2.0191719 
C     0.1238076    5.0826501    2.9447549 
C     0.8495114    4.4026414    4.1152121 
H     2.6671037    3.9253962    3.0526858 
H     2.3607887    2.8543521    4.4336487 
H     0.5200948    1.7218400    3.2123434 
H     2.0006252    1.6783700    2.2367862 
H    -1.0388923    4.5871872    1.1812875 
H    -1.3517609    3.5228949    2.5730912 
H     0.8539386    5.6710250    2.3550904 
H    -0.6324157    5.7973695    3.3167576 
H     0.1125718    3.8926193    4.7648871 
H     1.3517388    5.1573500    4.7461861 
H    -2.2774657   -1.1664419   -0.7341332 
C    -4.0246073   -3.2289580   -0.9912446 
C    -2.6113940   -3.2711342   -0.3786069 
C    -1.7520653   -2.1196850   -0.9497405 
C    -1.6573738   -2.2528184   -2.4869182 
C    -3.0671199   -2.1924105   -3.1033231 
C    -3.9753140   -3.2919778   -2.5271035 
H    -4.5218128   -2.2912655   -0.6726664 
H    -4.6292300   -4.0621744   -0.5897088 
H    -2.1350684   -4.2380807   -0.6260333 
H    -2.6763218   -3.2206634    0.7206730 
H    -1.0061692   -1.4720080   -2.9081250 
H    -1.1960223   -3.2181787   -2.7528454 
H    -3.5161749   -1.2015466   -2.8939289 
H    -2.9976674   -2.2840858   -4.2022621 
H    -3.5863532   -4.2820048   -2.8365535 
H    -4.9939897   -3.2086052   -2.9459972 
H     1.8915744   -3.0815573    0.1781869 
C     1.8219924   -5.3701001   -1.3307927 
C     0.8380862   -4.1880328   -1.3496548 
C     0.8557950   -3.4324810   -0.0005973 
C     0.4841462   -4.4114342    1.1402430 
C     1.4517295   -5.6126120    1.1593280 
C     1.4932595   -6.3449421   -0.1904532 
H     2.8523207   -4.9846512   -1.2045057 
H     1.7970735   -5.8835206   -2.3085850 
H    -0.1798049   -4.5844390   -1.5198075 
H     1.0654869   -3.5102850   -2.1862984 
H     0.5146214   -3.9163580    2.1248596 
H    -0.5502669   -4.7736157    0.9933136 
H     2.4674348   -5.2471590    1.4099468 
H     1.1577348   -6.3047547    1.9688016 
H     0.5073367   -6.8120064   -0.3833848 
H     2.2307931   -7.1665343   -0.1568958 
H    -1.0915027   -2.4853313    2.0710296 
C     0.5720158   -1.2006940    2.5804057 
H     0.2650148   -1.0461879    3.6265792 
H     1.3184466   -2.0123111    2.5481765 
H     1.0618670   -0.2801346    2.2272207 
