110
Energy =
C     2.6709235    1.0769321    0.7280024 
C     2.7138220    1.9464753   -0.4170373 
C     1.8285544    3.0267298   -0.5456317 
H     3.4055130    1.7163665   -1.2372439 
Pd    0.7719276    0.8338419   -0.3644108 
P    -0.9236445    0.5036789   -1.9983780 
P    -0.1788529   -0.4496268    1.3143335 
H     2.3752842    1.5261978    1.6863055 
H     1.2345307    3.2869733    0.3443559 
C     5.0505018   -2.5076261    1.0352605 
C     4.7234446   -1.9895384   -0.2288295 
C     3.9568360   -0.8243071   -0.3378242 
C     3.5121878   -0.1343775    0.8172671 
C     3.8719793   -0.6578703    2.0808159 
C     4.6208085   -1.8353485    2.1895521 
H     5.6282458   -3.4327030    1.1231993 
H     5.0582134   -2.5051150   -1.1352416 
H     3.6811880   -0.4570456   -1.3332221 
H     3.5691609   -0.1213173    2.9852655 
H     4.8731553   -2.2335714    3.1774154 
C     1.6582940    6.0353601   -3.5989398 
C     0.8455309    6.1204136   -2.4579561 
C     0.9153596    5.1268755   -1.4764764 
C     1.7979762    4.0263628   -1.6124953 
C     2.6250308    3.9669747   -2.7612918 
C     2.5501170    4.9577153   -3.7432861 
H     1.6071203    6.8110987   -4.3697066 
H     0.1587057    6.9636106   -2.3333599 
H     0.2771110    5.1921137   -0.5878139 
H     3.3357446    3.1445464   -2.8863866 
H     3.1966607    4.8976102   -4.6246900 
Fe   -3.1205669   -2.4112140    1.0836692 
C    -1.9513122   -0.7567388    1.0698583 
C    -2.5710451   -0.9572762   -0.2319979 
C    -3.9972436   -0.9487264   -0.0273570 
C    -4.2618410   -0.7497282    1.3686401 
C    -3.0086398   -0.6421461    2.0542748 
C    -2.9619741   -4.2538602    0.1810847 
C    -1.9926786   -4.1245810    1.2271729 
C    -2.6933774   -3.8640224    2.4534384 
C    -4.0988253   -3.8358300    2.1614892 
C    -4.2647457   -4.0716679    0.7551154 
C    -0.1187434    0.6330872    2.7981292 
C    -0.9793269    1.7545790    2.8310774 
C    -0.8772846    2.6982907    3.8561126 
C     0.0936070    2.5425450    4.8605580 
C     0.9514593    1.4338731    4.8393962 
C     0.8488875    0.4860588    3.8123317 
C     0.6378782   -2.0285687    1.7412533 
C     0.5379612   -2.6357213    3.0089638 
C     1.2121579   -3.8353960    3.2649536 
C     1.9695980   -4.4417182    2.2493677 
C     2.0275902   -3.8713760    0.9683720 
C     1.3721560   -2.6620009    0.7206774 
C    -1.8355642   -1.1178149   -1.5401432 
H    -4.7555881   -1.1064796   -0.7955219 
H    -5.2484813   -0.7277687    1.8347207 
H    -2.8674482   -0.4900370    3.1254231 
H    -2.7439798   -4.4613618   -0.8678611 
H    -0.9121532   -4.2083803    1.1097002 
H    -2.2405158   -3.7134868    3.4342168 
H    -4.8997464   -3.6431588    2.8776868 
H    -5.2136078   -4.0917867    0.2158406 
H    -1.7355277    1.8865721    2.0517958 
H     1.5293712   -0.3687320    3.8057798 
H    -0.0632760   -2.1745379    3.7986304 
H     1.4469808   -2.1906969   -0.2641657 
H    -0.9696190   -1.7748253   -1.3372045 
C    -2.7061288   -1.8025363   -2.6100013 
H    -3.1799152   -2.6865374   -2.1520238 
H    -3.5059164   -1.1537194   -2.9927793 
H    -2.1064595   -2.1483303   -3.4644671 
C     0.2425912    3.6055517    5.9281262 
F     1.0178444    4.6266939    5.4848032 
F    -0.9548501    4.1330282    6.2714198 
F     0.8200540    3.1160895    7.0473125 
H    -1.5546579    3.5570017    3.8829656 
H     1.6973002    1.3088369    5.6295903 
H     1.1530116   -4.3049421    4.2509178 
H     2.6066084   -4.3584333    0.1797038 
C     2.8058075   -5.6667043    2.5468806 
F     2.8493640   -6.5101415    1.4911323 
F     4.0894497   -5.3056645    2.8219748 
F     2.3439639   -6.3526399    3.6133376 
C    -0.0260870    0.1074614   -3.6532038 
C    -2.2029150    1.9146613   -2.1688924 
C    -0.9385914    0.0833732   -4.8972554 
H    -0.3343022   -0.2155675   -5.7737903 
H    -1.7702064   -0.6306891   -4.8091213 
H    -1.3584887    1.0784941   -5.1147449 
C    -2.4720377    2.4146414   -0.7280251 
H    -3.1880398    3.2561874   -0.7680630 
H    -2.9088914    1.6281988   -0.0906144 
H    -1.5409650    2.7766519   -0.2565767 
C     1.0900688    1.1558080   -3.8611794 
H     1.6603429    0.8960376   -4.7719727 
H     0.7074554    2.1783864   -3.9856698 
H     1.7900810    1.1552019   -3.0080190 
C     0.6694778   -1.2627599   -3.4584196 
H     1.3451718   -1.4441733   -4.3137849 
H     1.2848161   -1.2678402   -2.5384847 
H    -0.0371287   -2.1065416   -3.4131852 
C    -1.5716969    3.0711167   -2.9709362 
H    -2.2302143    3.9555533   -2.8944595 
H    -0.5862300    3.3574644   -2.5719857 
H    -1.4658866    2.8318569   -4.0411107 
C    -3.5351302    1.4938648   -2.8205892 
H    -4.1792446    2.3877292   -2.9139562 
H    -3.3975751    1.0773350   -3.8311194 
H    -4.0778151    0.7631983   -2.2007636 
