122
Energy =
C    -2.1217697   -2.0847865    1.3330160 
C    -1.4970471   -1.7698628    2.5616816 
C    -1.5962953   -0.4475787    3.0877229 
H    -0.8618963   -2.5084461    3.0663661 
Pd   -0.5455459   -0.4079127    1.1232170 
P     0.6342523    1.6299208    1.3044855 
P     0.0207576   -0.9004358   -1.1192006 
H    -2.9143404   -1.3968622    1.0082604 
H    -2.4685797    0.1469144    2.7759732 
C    -2.3792390   -5.9382305   -0.5488933 
C    -3.2344555   -4.8943171   -0.9307086 
C    -3.1193201   -3.6400672   -0.3206547 
C    -2.1487387   -3.4000511    0.6822388 
C    -1.2799910   -4.4577257    1.0387763 
C    -1.4009802   -5.7121068    0.4341931 
H    -2.4606770   -6.9186726   -1.0272063 
H    -3.9906047   -5.0594621   -1.7042830 
H    -3.8092587   -2.8358197   -0.6007790 
H    -0.4976675   -4.3029704    1.7881390 
H    -0.7159765   -6.5145941    0.7242329 
C     0.0952684    0.7318190    6.8617711 
C     0.7897164   -0.1750853    6.0412001 
C     0.2487892   -0.5688189    4.8136156 
C    -0.9904223   -0.0495621    4.3717370 
C    -1.6714097    0.8695193    5.2000113 
C    -1.1396436    1.2457202    6.4402100 
H     0.5183378    1.0349207    7.8249422 
H     1.7588328   -0.5722438    6.3599964 
H     0.8071365   -1.2615915    4.1759670 
H    -2.6268201    1.2883383    4.8663610 
H    -1.6863807    1.9518817    7.0734771 
Fe   -3.5437390    2.1370304   -1.6695720 
C    -2.2476595    0.6244644   -1.2338937 
C    -1.6896289    1.9094233   -0.8206134 
C    -2.6258544    2.5013652    0.1075385 
H    -2.5205710    3.4774713    0.5792280 
C    -3.7350516    1.6096278    0.2784537 
H    -4.6195139    1.7985947    0.8898127 
C    -3.5086963    0.4614256   -0.5494687 
H    -4.1869443   -0.3857195   -0.6743869 
C    -4.7122917    1.8056016   -3.3172239 
H    -4.9444357    0.8374258   -3.7649315 
C    -3.6094022    2.6576683   -3.6607179 
H    -2.8658395    2.4564547   -4.4337211 
C    -3.6758988    3.8273842   -2.8310017 
H    -2.9754868    4.6645804   -2.8361038 
C    -4.8224842    3.7009666   -1.9801576 
H    -5.1369527    4.4160348   -1.2177182 
C    -5.4642245    2.4531172   -2.2812018 
H    -6.3527527    2.0539097   -1.7883888 
C    -0.3578317    2.4628293   -1.2198338 
C     0.7863537    2.3948338   -0.3708026 
C     2.0210409    2.9073801   -0.8155012 
H     2.9083728    2.8131270   -0.1832303 
C     2.1407373    3.5000414   -2.0784785 
H     3.1114926    3.8753080   -2.4154639 
C     1.0193385    3.5879413   -2.9134360 
H     1.1047742    4.0394737   -3.9063172 
C    -0.2073556    3.0702262   -2.4829839 
H    -1.0875778    3.1297905   -3.1252577 
C     1.5536446   -0.2278018   -1.9211673 
C     2.7487368   -0.3345176   -1.1861758 
H     2.7470917   -0.7330343   -0.1704413 
C     3.9662577    0.0889187   -1.7347496 
C     4.0172422    0.6344700   -3.0226584 
H     4.9675145    0.9741798   -3.4431284 
C     2.8264912    0.7526551   -3.7503680 
C     1.6068115    0.3176854   -3.2152523 
H     0.7116583    0.4318727   -3.8196630 
C     0.3546612   -2.6929969   -1.4046254 
C    -0.2644033   -3.4721064   -2.3950314 
H    -1.0373160   -3.0571664   -3.0458150 
C     0.0957884   -4.8189820   -2.5533971 
C     1.0762238   -5.4026455   -1.7403171 
H     1.3454467   -6.4545676   -1.8650448 
C     1.6741029   -4.6301803   -0.7360285 
C     1.3094410   -3.2911550   -0.5613716 
H     1.7651334   -2.7196739    0.2525685 
C    -1.5722247   -0.4715722   -2.0452690 
H    -2.1421482   -1.3966896   -1.8339051 
C    -1.5790756   -0.2527202   -3.5680731 
H    -2.6237220   -0.2965326   -3.9161126 
H    -1.1917947    0.7430491   -3.8281235 
H    -1.0012195   -1.0192939   -4.1111467 
C    -0.5738848   -5.6471727   -3.6304869 
F    -0.7092365   -6.9384732   -3.2473102 
F    -1.8119380   -5.1724389   -3.9198518 
F     0.1387865   -5.6380074   -4.7783593 
C     2.6112452   -5.2680050    0.2637137 
F     3.5146569   -4.3786578    0.7414496 
F     1.9104961   -5.7302966    1.3408301 
F     3.2810373   -6.3131303   -0.2560066 
C     5.2131508    0.0457846   -0.8803229 
F     6.3371685    0.0178111   -1.6243580 
F     5.2836776    1.1483704   -0.0841391 
F     5.2242197   -1.0342660   -0.0634201 
C     2.8668244    1.4054337   -5.1155655 
F     1.6287670    1.5355689   -5.6518694 
F     3.4016049    2.6529351   -5.0337849 
F     3.6234631    0.7050679   -5.9850501 
C     4.8113138    0.6734860    3.1199359 
C     4.4449377    2.0108617    2.9016159 
C     3.2015447    2.3212406    2.3368060 
C     2.3147377    1.2860982    1.9701612 
C     2.6828614   -0.0519880    2.2169707 
C     3.9270108   -0.3603530    2.7816324 
H     5.7861051    0.4384412    3.5590647 
H     5.1315790    2.8184549    3.1750836 
H     2.9128600    3.3683579    2.1968708 
H     1.9679395   -0.8500285    1.9728732 
H     4.2034783   -1.4055958    2.9524005 
C    -0.5321882    5.2543141    3.9966580 
C    -0.0591376    4.0617328    4.5631092 
C     0.2726785    2.9723546    3.7471363 
C     0.1291191    3.0659091    2.3462474 
C    -0.3211201    4.2770932    1.7798763 
C    -0.6544664    5.3615432    2.6031856 
H    -0.7879508    6.1043381    4.6376153 
H     0.0599047    3.9727647    5.6475444 
H     0.6738767    2.0619190    4.2008850 
H    -0.3824184    4.3891410    0.6933509 
H    -0.9949952    6.2985880    2.1503121 
