132
Energy =
C     0.1198136   -0.4280237   -3.6048681 
C     0.1572998    0.9550853   -3.2391574 
C     1.2315734    1.4917446   -2.4959520 
H    -0.7318388    1.5744850   -3.4111219 
Pd    0.1977542   -0.2003950   -1.3756523 
P     0.1770266    0.8184175    0.7278548 
P    -0.2955610   -2.3471116   -0.5998577 
H     1.0842166   -0.9165361   -3.8057269 
H     2.1685164    0.9127831   -2.4810703 
C    -3.2740983   -2.1731213   -5.6217490 
C    -3.4584656   -1.0980828   -4.7368482 
C    -2.3648515   -0.5377533   -4.0679671 
C    -1.0533662   -1.0243641   -4.2812109 
C    -0.8838747   -2.0955709   -5.1877609 
C    -1.9805398   -2.6685416   -5.8438541 
H    -4.1316212   -2.6154640   -6.1388194 
H    -4.4627895   -0.6980626   -4.5628196 
H    -2.5319022    0.2816482   -3.3598881 
H     0.1240890   -2.4725700   -5.3927507 
H    -1.8222192   -3.4966540   -6.5427004 
C     1.7952204    5.5768502   -1.2902582 
C     2.7472836    4.5966908   -0.9724956 
C     2.5382596    3.2672502   -1.3557904 
C     1.3728631    2.8901201   -2.0635320 
C     0.4109824    3.8851536   -2.3535195 
C     0.6224098    5.2132448   -1.9723753 
H     1.9604697    6.6199471   -1.0024199 
H     3.6598919    4.8698605   -0.4323608 
H     3.2851214    2.5046858   -1.1089780 
H    -0.5059096    3.6260775   -2.8907137 
H    -0.1346807    5.9693891   -2.2036478 
Fe   -0.9076548   -0.6932783    3.8215082 
C    -0.9229237   -0.0787011    1.8762283 
C    -0.9782233   -1.5282288    1.9683406 
C    -2.1505902   -1.8703968    2.7309283 
C    -2.8139106   -0.6550459    3.1113071 
C    -2.0604015    0.4497866    2.5964442 
C     0.3349606   -1.7930054    5.0302158 
C     0.9419840   -0.5397761    4.6930603 
C     0.0718449    0.5090083    5.1524476 
C    -1.0714376   -0.1005213    5.7682301 
C    -0.9115311   -1.5241991    5.6883529 
C    -0.6282867    2.4574066    0.5941262 
C    -0.0964911    3.6610391    1.0814769 
C    -0.7858532    4.8764194    0.9168291 
C    -2.0134245    4.8623385    0.2198076 
C    -2.5581364    3.6690808   -0.3121116 
C    -1.8533362    2.4755695   -0.1082932 
C     1.8394298    0.9970729    1.4606713 
C     2.0938999    1.7315677    2.6344646 
C     3.3896248    1.8226806    3.1649751 
C     4.4389637    1.1454944    2.4949399 
C     4.2094405    0.3719839    1.3336959 
C     2.8991458    0.3198403    0.8291679 
C    -0.0187284   -2.4582708    1.2796138 
H    -2.4668130   -2.8793509    3.0004450 
H    -3.7133592   -0.5836865    3.7257443 
H    -2.2953713    1.5084474    2.7147918 
H     0.7499232   -2.7805815    4.8226332 
H     1.8914668   -0.4080245    4.1734239 
H     0.2403765    1.5823751    5.0566187 
H    -1.9260605    0.4256357    6.1975088 
H    -1.6234329   -2.2708747    6.0450761 
H     0.8834097    3.6788142    1.5652003 
H    -2.2588155    1.5402857   -0.5145904 
H     1.2691268    2.2186093    3.1618414 
H     2.6923903   -0.2701564   -0.0729468 
H     0.9910942   -2.0157743    1.3765640 
H     0.6253229   -4.5905988   -0.6443488 
H    -1.9574325   -2.8784042   -2.1672486 
C    -4.4453384   -2.0688502   -1.2740305 
C    -3.0511962   -1.7237751   -0.7220079 
C    -2.0341641   -2.8397824   -1.0600891 
C    -2.5208038   -4.2135826   -0.5544261 
C    -3.9097026   -4.5412210   -1.1340775 
C    -4.9273293   -3.4436376   -0.7825793 
H    -4.4020890   -2.0747760   -2.3791818 
H    -5.1629141   -1.2796075   -0.9842139 
H    -3.1090503   -1.5890203    0.3719639 
H    -2.6936127   -0.7653693   -1.1420982 
H    -1.7979190   -5.0083635   -0.8133663 
H    -2.5946713   -4.1863244    0.5485158 
H    -3.8306704   -4.6332065   -2.2352523 
H    -4.2481859   -5.5223076   -0.7552928 
H    -5.0658859   -3.4144253    0.3166366 
H    -5.9136688   -3.6815741   -1.2193668 
C     3.2982212   -4.3505241   -1.4855066 
C     2.3177078   -3.2717459   -0.9917554 
C     0.8472633   -3.6842152   -1.2399869 
C     0.6213286   -4.0161672   -2.7264262 
C     1.6011629   -5.0999821   -3.2111435 
C     3.0617640   -4.6887118   -2.9659397 
H     3.1677629   -5.2641412   -0.8729646 
H     4.3369291   -4.0088425   -1.3243121 
H     2.5068360   -2.3220472   -1.5335289 
H     2.4945579   -3.0639752    0.0793010 
H    -0.4188174   -4.3386639   -2.9063147 
H     0.7732282   -3.0972931   -3.3167247 
H     1.3901864   -6.0474994   -2.6776065 
H     1.4288901   -5.2979113   -4.2845157 
H     3.2988756   -3.8000371   -3.5847088 
H     3.7477311   -5.4910820   -3.2905641 
C     0.0172582   -3.8728643    1.8807524 
H     0.1599991   -3.7876035    2.9705582 
H    -0.9148876   -4.4302995    1.7055370 
H     0.8532856   -4.4653941    1.4763203 
C    -0.2120051    6.1747834    1.4315057 
H    -0.6535256    6.4486168    2.4082260 
H     0.8784100    6.0960440    1.5687826 
H    -0.4284871    6.9986637    0.7316297 
C    -3.8419302    3.7102416   -1.1066195 
H    -4.0109040    2.7589446   -1.6376928 
H    -4.7156018    3.8895447   -0.4532403 
H    -3.8180765    4.5348125   -1.8392001 
O    -2.6500223    6.0532292   -0.0582090 
C    -3.5626990    6.5329991    0.9391617 
H    -3.9892789    7.4672771    0.5448826 
H    -4.3758039    5.8048642    1.1214683 
H    -3.0453732    6.7402703    1.8948180 
C     3.6763737    2.5856049    4.4364381 
H     4.3360237    2.0003119    5.0984837 
H     4.1970772    3.5377418    4.2242648 
H     2.7452521    2.8243507    4.9750300 
C     5.3390428   -0.3840144    0.6735577 
H     6.0616536   -0.7361129    1.4276831 
H     4.9567036   -1.2496406    0.1071140 
H     5.8921249    0.2584103   -0.0374451 
O     5.6973306    1.1762054    3.0506664 
C     6.5860969    2.1825506    2.5440143 
H     7.5246915    2.0783761    3.1079926 
H     6.7870900    2.0380440    1.4655747 
H     6.1724925    3.1969422    2.7003801 
