132
Energy =
C     2.1647942   -1.5943918   -2.4490035 
C     2.2494172   -0.1838573   -2.5008617 
C     2.7646089    0.5721838   -1.4079967 
H     1.8012240    0.3462333   -3.3516460 
Pd    0.9517873   -0.5618266   -0.7735447 
P     0.4733454    0.6877364    1.1342183 
P    -1.0673317   -1.7942445   -0.5209168 
H     2.8357730   -2.1077792   -1.7427359 
H     3.5184838    0.0879248   -0.7702963 
C     0.8436744   -4.0611397   -5.7211747 
C     0.2770602   -2.7882434   -5.5372321 
C     0.6881256   -1.9801176   -4.4722819 
C     1.6702096   -2.4295480   -3.5594483 
C     2.2252626   -3.7150502   -3.7528763 
C     1.8230176   -4.5185376   -4.8271533 
H     0.5236221   -4.6906646   -6.5576432 
H    -0.4877126   -2.4235685   -6.2310827 
H     0.2378807   -0.9919245   -4.3403763 
H     2.9896730   -4.0802768   -3.0576192 
H     2.2729290   -5.5072805   -4.9632832 
C     2.9170992    4.8768399   -1.3683667 
C     1.8673495    4.2218551   -2.0349321 
C     1.8086292    2.8242884   -2.0544831 
C     2.7991723    2.0493788   -1.4071051 
C     3.8502036    2.7216489   -0.7492001 
C     3.9092487    4.1208616   -0.7281814 
H     2.9583483    5.9706937   -1.3474575 
H     1.0888639    4.8052446   -2.5387265 
H     0.9756664    2.3249666   -2.5633787 
H     4.6278850    2.1385162   -0.2460929 
H     4.7269664    4.6187160   -0.1969851 
Fe    1.4016908   -2.1591423    2.7967542 
C     0.2286777   -0.5255848    2.4554266 
C    -0.5295524   -1.7648636    2.3343938 
C    -0.4295048   -2.4303860    3.6119682 
C     0.3845856   -1.6466021    4.4910456 
C     0.7987474   -0.4749038    3.7840638 
C     2.2066237   -3.2441356    1.2538315 
C     3.1109135   -2.2019946    1.6398367 
C     3.4348664   -2.3807132    3.0243846 
C     2.7293829   -3.5375497    3.4963746 
C     1.9708786   -4.0736601    2.4000273 
C    -1.0642824    1.6809257    1.0843162 
C    -1.2370287    2.6219936    0.0490441 
C    -2.4188993    3.3697537   -0.0561788 
C    -3.4577950    3.1155366    0.8721699 
C    -3.3157835    2.1695162    1.9133474 
C    -2.0948645    1.4779864    2.0178295 
C     1.7481033    1.8415176    1.7753624 
C     1.5339836    3.2288299    1.8243055 
C     2.5446055    4.1065057    2.2562740 
C     3.7804645    3.5570598    2.6606723 
C     4.0227819    2.1635421    2.6248697 
C     2.9983755    1.3236388    2.1686420 
C    -1.4769041   -2.2767601    1.2647299 
H    -0.8815941   -3.3960772    3.8501315 
H     0.6690878   -1.9130815    5.5105369 
H     1.4344586    0.3237088    4.1675966 
H     1.7726777   -3.3710370    0.2645243 
H     3.4854745   -1.4168235    0.9823040 
H     4.0884458   -1.7418884    3.6213264 
H     2.7515456   -3.9306022    4.5143574 
H     1.3170484   -4.9470144    2.4400276 
H    -0.4388383    2.7751919   -0.6848784 
H    -1.9609439    0.7533667    2.8281696 
H     0.5774025    3.6526246    1.5057132 
H     3.1638670    0.2449724    2.1350533 
H    -1.3290758   -3.3724077    1.2462034 
H    -1.2849352   -3.1073509   -2.5087318 
H    -2.3523420    0.2187148   -0.4467456 
C    -4.6756054    0.1810843   -1.8696273 
C    -3.8248571   -1.0244717   -1.4217237 
C    -2.3589024   -0.5889088   -1.2024341 
C    -1.8071753   -0.0015070   -2.5266582 
C    -2.6700340    1.1568223   -3.0543115 
C    -4.1493288    0.7679918   -3.1875281 
H    -4.6554496    0.9580996   -1.0798097 
H    -5.7285497   -0.1345328   -1.9797177 
H    -3.8649928   -1.7944730   -2.2145998 
H    -4.2599099   -1.4676131   -0.5142017 
H    -0.7658631    0.3457440   -2.3690834 
H    -1.7658380   -0.8081503   -3.2838869 
H    -2.5826561    2.0023854   -2.3511036 
H    -2.2668620    1.5027709   -4.0237701 
H    -4.2639059    0.0144665   -3.9918285 
H    -4.7487608    1.6459284   -3.4885279 
C    -2.7385383   -5.4352185   -2.0249707 
C    -2.6153660   -4.1736291   -1.1479476 
C    -1.2963427   -3.4175572   -1.4445268 
C    -0.1053930   -4.3711020   -1.2156107 
C    -0.2233887   -5.6396115   -2.0785955 
C    -1.5445919   -6.3790165   -1.8226652 
H    -2.7941956   -5.1311835   -3.0886791 
H    -3.6876128   -5.9506031   -1.7919705 
H    -2.6222315   -4.4836057   -0.0847538 
H    -3.4934540   -3.5303059   -1.2984838 
H     0.8387290   -3.8504209   -1.4411265 
H    -0.0743735   -4.6621072   -0.1463980 
H    -0.1645048   -5.3475830   -3.1432626 
H     0.6410159   -6.2999520   -1.8836649 
H    -1.5573846   -6.7659854   -0.7842219 
H    -1.6290639   -7.2566454   -2.4880265 
C    -2.9418589   -2.0127672    1.6862870 
H    -3.2032359   -0.9466409    1.5961411 
H    -3.6457497   -2.6012244    1.0778778 
H    -3.0763318   -2.3065185    2.7413777 
C    -2.6188955    4.3996409   -1.1428417 
H    -3.5745192    4.2337126   -1.6687559 
H    -2.6623452    5.4196885   -0.7192929 
H    -1.7942256    4.3722740   -1.8730360 
C    -4.4537309    1.8941701    2.8682471 
H    -4.4290876    2.5823568    3.7338724 
H    -5.4238318    2.0303211    2.3626918 
H    -4.3958910    0.8672133    3.2652960 
O    -4.6613548    3.7571804    0.6834166 
C    -4.9004897    4.9214351    1.4888714 
H    -5.8820186    5.3117683    1.1819205 
H    -4.9249403    4.6730491    2.5661846 
H    -4.1257156    5.6917918    1.3146825 
C     2.3301225    5.6013166    2.2378654 
H     1.9428464    5.9674980    3.2072424 
H     3.2794390    6.1249967    2.0386407 
H     1.5998702    5.8802418    1.4607507 
C     5.3758677    1.6233985    3.0223352 
H     5.5688414    1.7712851    4.1004434 
H     5.4523193    0.5448551    2.8073027 
H     6.1797989    2.1537564    2.4831129 
O     4.8305013    4.3850856    2.9952194 
C     4.8455182    4.8845845    4.3401679 
H     5.7549459    5.4967896    4.4323164 
H     3.9589047    5.5108860    4.5522110 
H     4.8830129    4.0553013    5.0719528 
