132
Energy =
C     2.1241502   -1.1443009   -2.4728549 
C     1.9058526    0.2447823   -2.5982723 
C     2.2653057    1.1506957   -1.5552814 
H     1.3268364    0.6142938   -3.4535947 
Pd    0.7791722   -0.3229518   -0.7874244 
P     0.3156103    0.6923660    1.2633568 
P    -0.9874196   -1.8429001   -0.6075529 
H     2.8636882   -1.4649217   -1.7223478 
H     3.1287608    0.8873819   -0.9307932 
C     1.3207249   -4.1832914   -5.4131327 
C     0.7075439   -2.9243407   -5.5342562 
C     0.9582760   -1.9227705   -4.5920261 
C     1.8141528   -2.1613425   -3.4901793 
C     2.4280959   -3.4309634   -3.3867092 
C     2.1919149   -4.4276070   -4.3414894 
H     1.1291398   -4.9628490   -6.1573891 
H     0.0376139   -2.7202747   -6.3760167 
H     0.4823106   -0.9460691   -4.7165430 
H     3.1064489   -3.6311852   -2.5496195 
H     2.6903350   -5.3978979   -4.2488251 
C     1.3213975    5.3576936   -1.5913817 
C     0.6356632    4.4811121   -2.4497572 
C     0.9231938    3.1125542   -2.4390783 
C     1.9243809    2.5871799   -1.5855603 
C     2.6063445    3.4825875   -0.7299999 
C     2.3026659    4.8491859   -0.7273571 
H     1.0912248    6.4280497   -1.5984686 
H    -0.1377011    4.8666611   -3.1222689 
H     0.3512892    2.4451365   -3.0927246 
H     3.3777680    3.0966931   -0.0563865 
H     2.8422812    5.5203036   -0.0505641 
Fe    1.0026273   -2.1967450    3.1288441 
C    -0.0561938   -0.5768794    2.4986483 
C    -0.8309770   -1.7935251    2.3039926 
C    -0.9610151   -2.4099743    3.6030966 
C    -0.2955993   -1.5991774    4.5787151 
C     0.2731796   -0.4732473    3.9037477 
C     3.0366191   -2.0040976    3.1286560 
C     2.6040197   -2.7964364    4.2417644 
C     1.8972993   -3.9351250    3.7303590 
C     1.8944735   -3.8490098    2.3004920 
C     2.5912508   -2.6512581    1.9236088 
C    -1.0962956    1.8482121    1.3996301 
C    -2.1648843    1.5803088    2.2769546 
C    -3.3083634    2.3947566    2.2898974 
C    -3.3557737    3.4966085    1.4052092 
C    -2.2718269    3.8221165    0.5550348 
C    -1.1496701    2.9766933    0.5597029 
C     1.7560619    1.6109751    1.9259215 
C     3.0387472    1.0563498    1.7544553 
C     4.1876993    1.7241862    2.1986895 
C     4.0252767    2.9945598    2.8056623 
C     2.7495508    3.5665190    3.0123879 
C     1.6207342    2.8543798    2.5651644 
C    -1.6386323   -2.2954115    1.1179962 
H    -1.4777192   -3.3520518    3.8007549 
H    -0.1958920   -1.8264225    5.6417377 
H     0.8706358    0.3237740    4.3501452 
H     3.5851584   -1.0655464    3.2026602 
H     2.7593752   -2.5567729    5.2952802 
H     1.4239965   -4.7179248    4.3259069 
H     1.4426171   -4.5729173    1.6257143 
H     2.7452075   -2.2975375    0.9015786 
H    -2.1166987    0.7239542    2.9570970 
H    -0.3096195    3.2058693   -0.1041317 
H     3.1415248    0.0907776    1.2478816 
H     0.6262216    3.2874999    2.7144909 
H    -1.5388441   -3.3957763    1.1294652 
H    -0.4419843   -3.2806197   -2.4448056 
H    -3.3029295   -1.6208532   -1.3971003 
C    -3.1803316   -0.3774378   -3.9109383 
C    -2.0636993   -1.0408050   -3.0844093 
C    -2.3885644   -1.0240449   -1.5728478 
C    -2.6389977    0.4317794   -1.1290101 
C    -3.7629597    1.0946272   -1.9413671 
C    -3.4564106    1.0605115   -3.4456618 
H    -4.1051404   -0.9796439   -3.8152201 
H    -2.9039587   -0.3949928   -4.9809949 
H    -1.1171582   -0.4856002   -3.2336859 
H    -1.8906027   -2.0653780   -3.4534242 
H    -2.8695176    0.4905386   -0.0546345 
H    -1.7027116    1.0051485   -1.2747187 
H    -4.7193983    0.5707471   -1.7442979 
H    -3.8934302    2.1341718   -1.5909633 
H    -2.5630221    1.6862043   -3.6459672 
H    -4.2878176    1.5002085   -4.0251232 
C    -1.9538337   -5.6424041   -2.2626338 
C    -2.1601180   -4.2830116   -1.5674677 
C    -0.8231493   -3.5193174   -1.4331444 
C     0.2395123   -4.3795037   -0.7246507 
C     0.4181373   -5.7506359   -1.3994072 
C    -0.9177724   -6.4992287   -1.5193965 
H    -1.6096022   -5.4665923   -3.3007511 
H    -2.9211641   -6.1715471   -2.3320060 
H    -2.5903364   -4.4571979   -0.5612381 
H    -2.8980725   -3.6854635   -2.1301848 
H     1.1977635   -3.8301945   -0.6907645 
H    -0.0738630   -4.5414330    0.3239404 
H     0.8411851   -5.6007052   -2.4088300 
H     1.1525855   -6.3484392   -0.8292481 
H    -1.3009434   -6.7409756   -0.5077879 
H    -0.7709557   -7.4625333   -2.0393791 
C    -3.1390235   -1.9783737    1.3328460 
H    -3.3286919   -0.8936489    1.3438178 
H    -3.7679104   -2.4407047    0.5543802 
H    -3.4564432   -2.3825065    2.3089215 
C    -4.4669244    2.1264820    3.2205487 
H    -4.7251498    3.0329454    3.7941866 
H    -5.3737783    1.8401680    2.6569872 
H    -4.2302541    1.3119329    3.9239569 
C    -2.3253025    5.0496456   -0.3237085 
H    -2.6907358    4.8002842   -1.3381420 
H    -3.0043268    5.8039502    0.1048594 
H    -1.3218367    5.4885904   -0.4395784 
O    -4.4681364    4.3082585    1.4499612 
C    -5.4411536    4.0926456    0.4198512 
H    -6.2777133    4.7739200    0.6350990 
H    -5.0321166    4.3216886   -0.5825791 
H    -5.8042386    3.0468967    0.4277845 
C     5.5695444    1.1364905    2.0369044 
H     6.1195784    1.1662846    2.9926949 
H     5.5195319    0.0932760    1.6841558 
H     6.1690209    1.7132649    1.3089804 
C     2.6041673    4.9048855    3.6978514 
H     2.6200294    5.7323511    2.9632322 
H     1.6462926    4.9681444    4.2395557 
H     3.4308418    5.0707654    4.4074349 
O     5.1551997    3.6427098    3.2517637 
C     5.6753311    4.6564538    2.3802597 
H     6.5893437    5.0384286    2.8584494 
H     5.9260134    4.2371563    1.3867028 
H     4.9568109    5.4875211    2.2482289 
