112
Energy =
C     1.3731322    0.2570371   -2.9717077 
C     0.7984939    1.5152661   -2.6673250 
C     1.3902160    2.3841117   -1.7162199 
H    -0.1655502    1.7942073   -3.1108097 
Pd    0.7460719    0.4477303   -0.7245468 
P     0.2256238    1.4457650    1.3165526 
P     0.4278261   -1.7537488    0.0290819 
H     2.4382544    0.1364720   -2.7354451 
H     2.4588829    2.2317717   -1.5008519 
C     0.0523588   -2.3770427   -6.1115725 
C     1.3469267   -2.4813099   -5.5808967 
C     1.7564573   -1.6207637   -4.5556678 
C     0.8781277   -0.6467739   -4.0234997 
C    -0.4211542   -0.5510130   -4.5747337 
C    -0.8242393   -1.4001652   -5.6102840 
H    -0.2697217   -3.0441197   -6.9174005 
H     2.0441010   -3.2279041   -5.9748851 
H     2.7773833   -1.6917271   -4.1645970 
H    -1.1264056    0.1947857   -4.1935923 
H    -1.8307983   -1.3021232   -6.0298066 
C     0.0440333    6.3888110   -0.9089117 
C     1.4070123    6.0631786   -0.8544322 
C     1.8263165    4.7488515   -1.0924939 
C     0.8933956    3.7397260   -1.4164470 
C    -0.4762835    4.0836729   -1.4770277 
C    -0.8969637    5.3912583   -1.2162681 
H    -0.2859102    7.4142415   -0.7127287 
H     2.1473684    6.8323044   -0.6121166 
H     2.8899226    4.4958243   -1.0250114 
H    -1.2214043    3.3189613   -1.7140345 
H    -1.9639704    5.6341897   -1.2545198 
Fe   -1.9702454   -1.8183147    2.7651826 
C    -0.2092221   -1.9253504    1.7278438 
C    -0.0973509   -0.9961345    2.8461593 
C    -0.3999624   -1.7394277    4.0473567 
C    -0.6899548   -3.0952356    3.6973433 
C    -0.5889128   -3.2147791    2.2775575 
C    -3.7394286   -2.4353656    1.9473071 
C    -3.7325737   -2.6327009    3.3691317 
C    -3.5282773   -1.3553901    3.9949570 
C    -3.4144645   -0.3673501    2.9617422 
C    -3.5489587   -1.0349660    1.7013611 
C     0.4557408    0.4113951    2.8812629 
H    -0.4287037   -1.3354399    5.0594611 
H    -0.9829953   -3.8869034    4.3891363 
H    -0.7545373   -4.1312389    1.7081848 
H    -3.8673997   -3.2116782    1.1913560 
H    -3.8367767   -3.5886992    3.8855838 
H    -3.4518597   -1.1755228    5.0689793 
H    -3.2602858    0.7026394    3.1002731 
H    -3.5276124   -0.5495208    0.7281432 
H     1.5789244   -3.8540001   -0.0263460 
C     3.5370931   -1.5359427    1.7057954 
C     2.7279155   -2.8191360    1.4764533 
C     1.9896469   -2.8377354    0.1192496 
C     2.9630379   -2.5130981   -1.0368800 
C     3.7886262   -1.2411470   -0.7759201 
C     4.5340588   -1.2922397    0.5641893 
H     4.0521733   -1.5829006    2.6814973 
H     2.8389805   -0.6766601    1.7566490 
H     2.0267954   -2.9958099    2.3085573 
H     3.4246428   -3.6805128    1.4684609 
H     3.6505748   -3.3736825   -1.1511288 
H     2.4117239   -2.4262805   -1.9888499 
H     4.4854144   -1.0654217   -1.6156807 
H     3.0972400   -0.3686012   -0.7462931 
H     5.0921524   -0.3519453    0.7272469 
H     5.2840798   -2.1067939    0.5480021 
H    -1.2149795   -3.4917500   -0.2108977 
C    -1.3654581   -4.4521235   -2.7564568 
C    -0.2428414   -3.5968821   -2.1346514 
C    -0.8044031   -2.7815926   -0.9539555 
C    -1.9587673   -1.8789332   -1.4282554 
C    -3.0883616   -2.7172536   -2.0512773 
C    -2.5650159   -3.5975697   -3.1980503 
H    -1.6996035   -5.2029322   -2.0128270 
H    -0.9619380   -5.0159336   -3.6166292 
H     0.1662240   -2.9132464   -2.8979972 
H     0.5818263   -4.2560232   -1.8119948 
H    -2.3337452   -1.2894819   -0.5771822 
H    -1.5614907   -1.1635218   -2.1733833 
H    -3.5351713   -3.3583964   -1.2657157 
H    -3.8956348   -2.0529336   -2.4103837 
H    -2.2486639   -2.9477700   -4.0338511 
H    -3.3729466   -4.2448790   -3.5835966 
H     1.5607325    0.3162793    2.8774673 
C     0.0660701    1.1709450    4.1620291 
H     0.5195654    0.6824364    5.0404169 
H     0.4381764    2.2084654    4.1407711 
H    -1.0275816    1.1738563    4.2977970 
C     3.3019517    4.7896911    2.3454393 
C     3.7080007    3.4829488    2.0288685 
C     2.7528905    2.5118542    1.7063415 
C     1.3757935    2.8308573    1.7042625 
C     0.9805325    4.1515585    1.9826386 
C     1.9415094    5.1205566    2.3101595 
H     4.0472562    5.5495284    2.6018634 
H     4.7708522    3.2195550    2.0314849 
H     3.0811657    1.4990019    1.4436186 
H    -0.0693446    4.4453322    1.9109416 
H     1.6185748    6.1452033    2.5199331 
C    -4.1313795    3.0713160    1.0613017 
C    -3.3440346    3.4230500    2.1686132 
C    -2.0317415    2.9440040    2.2871223 
C    -1.4861572    2.1069367    1.2877052 
C    -2.2891116    1.7586673    0.1818573 
C    -3.6019070    2.2345202    0.0683773 
H    -5.1560262    3.4470932    0.9754530 
H    -3.7533606    4.0732019    2.9486115 
H    -1.4422555    3.2284874    3.1611338 
H    -1.8666723    1.1056189   -0.5922904 
H    -4.2113317    1.9506736   -0.7959383 
