122
Energy =
C     0.3527431   -2.7949416    1.5492006 
C     0.6967107   -1.9910770    2.6755826 
C    -0.2763722   -1.2029182    3.3284642 
H     1.7485502   -1.8974014    2.9705188 
Pd    0.0333781   -0.6116350    1.0911552 
P    -0.0516395    1.7245789    1.4590723 
P     0.1123883   -0.8942516   -1.2278180 
H    -0.6841889   -3.1543189    1.5026177 
H    -1.3302675   -1.4422162    3.1201384 
C     3.1184803   -5.3133083   -0.5760787 
C     3.6037513   -4.2348412    0.1827547 
C     2.7182186   -3.3858403    0.8536949 
C     1.3223045   -3.6153349    0.8004617 
C     0.8471882   -4.6950746    0.0200330 
C     1.7362499   -5.5321460   -0.6652218 
H     3.8159244   -5.9660932   -1.1084830 
H     4.6809610   -4.0488068    0.2390147 
H     3.1193364   -2.5350454    1.4146922 
H    -0.2296626   -4.8896452   -0.0225579 
H     1.3499204   -6.3652797   -1.2610918 
C     0.2661386    1.1217796    6.8983228 
C    -0.9885631    1.0505705    6.2751322 
C    -1.1475514    0.2964823    5.1079181 
C    -0.0533901   -0.3895918    4.5299975 
C     1.2065944   -0.3039798    5.1687617 
C     1.3604317    0.4385680    6.3415878 
H     0.3920963    1.7023971    7.8179819 
H    -1.8485392    1.5742083    6.7049205 
H    -2.1324107    0.2331741    4.6359344 
H     2.0724509   -0.8281533    4.7550942 
H     2.3409294    0.4874046    6.8251112 
Fe   -2.9866279    2.3099324   -2.7239480 
C    -1.6275787    1.1396976   -1.7966345 
C    -1.7053888    2.4273637   -1.1251984 
C    -3.0751780    2.6243359   -0.7193059 
H    -3.4514444    3.5046203   -0.1964707 
C    -3.8284398    1.4609333   -1.0797632 
H    -4.8974709    1.3150072   -0.9156035 
C    -2.9458495    0.5451764   -1.7418652 
H    -3.2295597   -0.4142555   -2.1792137 
C    -2.8050113    2.0487896   -4.7429308 
H    -2.2380878    1.2610917   -5.2435247 
C    -2.3039501    3.3388547   -4.3633106 
H    -1.2930400    3.7090861   -4.5434269 
C    -3.3698308    4.0588727   -3.7223394 
H    -3.3143949    5.0692125   -3.3125851 
C    -4.5297057    3.2151565   -3.7127851 
H    -5.5001655    3.4636792   -3.2794608 
C    -4.1814154    1.9735899   -4.3430382 
H    -4.8405920    1.1128642   -4.4707763 
C    -0.5625725    3.3341615   -0.8352243 
C     0.3485672    3.0485899    0.2213914 
C     1.4968575    3.8520027    0.3825872 
H     2.2125101    3.6324600    1.1789512 
C     1.7282545    4.9517980   -0.4557689 
H     2.6285464    5.5585076   -0.3155120 
C     0.7931090    5.2823489   -1.4436563 
H     0.9476738    6.1576930   -2.0828068 
C    -0.3369915    4.4746954   -1.6258089 
H    -1.0606656    4.7006472   -2.4112709 
C     1.8553604   -1.3014348   -1.6591418 
C     2.3158845   -2.3713081   -2.4470759 
H     1.6287935   -3.0840515   -2.9061930 
C     3.6938344   -2.5712364   -2.6139239 
C     4.6303031   -1.7406270   -1.9800148 
H     5.7020538   -1.9269631   -2.0884121 
C     4.1695061   -0.6899561   -1.1777803 
C     2.7968206   -0.4622059   -1.0337365 
H     2.4559362    0.3648416   -0.4023800 
C    -0.9516514   -2.2749664   -1.8142560 
C    -0.8626470   -2.8123546   -3.1121704 
H    -0.1588972   -2.4055803   -3.8447532 
C    -1.6750934   -3.8924186   -3.4862118 
C    -2.6074025   -4.4327427   -2.5881046 
H    -3.2246608   -5.2866213   -2.8773768 
C    -2.7374202   -3.8565225   -1.3181245 
C    -1.9245242   -2.7801872   -0.9391240 
H    -2.0432908   -2.3306266    0.0511871 
C    -0.4241248    0.4839875   -2.4236681 
H    -0.7797848   -0.0731847   -3.3085115 
C     0.7250106    1.3995140   -2.8686398 
H     0.3059223    2.2179455   -3.4760617 
H     1.2665146    1.8556131   -2.0260290 
H     1.4485032    0.8380255   -3.4816674 
C    -1.5316757   -4.4487264   -4.8890121 
F    -0.2225023   -4.5804276   -5.2176881 
F    -2.1195450   -5.6541715   -5.0176060 
F    -2.0885941   -3.6142603   -5.7983449 
C    -3.6920883   -4.4125953   -0.2857060 
F    -2.9930096   -4.9303186    0.7655045 
F    -4.4867223   -3.4387878    0.2211680 
F    -4.4780028   -5.3860929   -0.7762397 
C     4.1967615   -3.7069263   -3.4822959 
F     4.6594197   -3.2475872   -4.6661513 
F     5.2195076   -4.3638677   -2.8798687 
F     3.2250382   -4.6107128   -3.7442431 
C     5.1197166    0.1392843   -0.3454389 
F     4.7370535    1.4370257   -0.2873954 
F     5.1254555   -0.3176202    0.9472608 
F     6.3854901    0.0887739   -0.7936006 
C     3.4138787    2.5605869    4.4522098 
C     3.5729344    1.6661826    3.3828194 
C     2.4887428    1.3920456    2.5398379 
C     1.2425331    2.0263020    2.7377595 
C     1.0841322    2.9024216    3.8266815 
C     2.1669752    3.1616676    4.6796380 
H     4.2572120    2.7790147    5.1154542 
H     4.5358114    1.1813840    3.1948517 
H     2.6157755    0.6823505    1.7152755 
H     0.1176053    3.3737133    4.0233140 
H     2.0308169    3.8378655    5.5297790 
C    -4.1741518    3.1630296    3.0510802 
C    -3.1336745    4.0918998    2.8845013 
C    -1.8831120    3.6718222    2.4120114 
C    -1.6598855    2.3090076    2.1229428 
C    -2.7144581    1.3886357    2.2686691 
C    -3.9665378    1.8124027    2.7337445 
H    -5.1518620    3.4965931    3.4140681 
H    -3.3000462    5.1495522    3.1138836 
H    -1.0879192    4.4066694    2.2460743 
H    -2.5565093    0.3424062    1.9833287 
H    -4.7832295    1.0903431    2.8362907 
