116
Energy =
C    -2.7207452   -1.8256222   -0.9729861 
C    -2.7877601   -0.5693175   -1.5938772 
C    -1.7167288   -0.0594373   -2.3991479 
H    -3.6447326    0.0832266   -1.3854685 
Pd   -0.9714643   -0.3412812   -0.3314398 
P     1.1894983    0.5064310   -0.7283405 
P    -0.8285053   -0.3022986    2.0688224 
H    -1.9269534   -2.5115016   -1.3072816 
H    -1.1426663   -0.7864178   -2.9885336 
C    -5.7996065   -3.7583040    1.3169604 
C    -4.6333685   -4.4486069    0.9543565 
C    -3.6426570   -3.8035284    0.2055247 
C    -3.7912135   -2.4531121   -0.1904444 
C    -4.9818744   -1.7755963    0.1697611 
C    -5.9713317   -2.4218453    0.9155987 
H    -6.5774838   -4.2602439    1.9011736 
H    -4.4982962   -5.4938471    1.2504534 
H    -2.7387670   -4.3505479   -0.0857404 
H    -5.1346740   -0.7339983   -0.1284507 
H    -6.8853117   -1.8829608    1.1854410 
C    -1.8391301    3.9318190   -4.0373538 
C    -2.4674223    3.6561134   -2.8114189 
C    -2.4315898    2.3647489   -2.2752943 
C    -1.7762144    1.3106124   -2.9563111 
C    -1.1681407    1.6011953   -4.1987207 
C    -1.1920800    2.8976102   -4.7297328 
H    -1.8603916    4.9446767   -4.4520485 
H    -2.9759525    4.4565179   -2.2639302 
H    -2.8926297    2.1781396   -1.2993215 
H    -0.6852561    0.7952511   -4.7616883 
H    -0.7129226    3.0973353   -5.6938929 
Fe    2.6044704   -2.4796536    0.6526645 
C     2.3121120   -0.4655401    0.3064392 
C     2.0586763   -0.7744199    1.7057047 
C     3.2660532   -1.3726575    2.2237916 
C     4.2521409   -1.4192775    1.1884714 
C     3.6664544   -0.8767877    0.0018395 
C     1.9090103   -4.2666613    1.3812694 
C     1.1303447   -3.8617822    0.2434427 
C     2.0149947   -3.7452516   -0.8748753 
C     3.3401999   -4.0557317   -0.4333444 
C     3.2742173   -4.3835822    0.9616614 
C     0.9894607   -0.2812326    2.6738058 
H     3.3967843   -1.7293716    3.2482159 
H     5.2557078   -1.8406219    1.2728445 
H     4.1588182   -0.7904124   -0.9667835 
H     1.5425233   -4.4571316    2.3903147 
H     0.0570443   -3.6815397    0.2184345 
H     1.7250386   -3.4786896   -1.8884944 
H     4.2444603   -4.0279530   -1.0442976 
H     4.1193962   -4.6477563    1.6000285 
H     0.9692610   -1.0345903    3.4748122 
C     1.4933908    1.0235260    3.3358991 
H     2.4736851    0.8280279    3.8023545 
H     1.6390187    1.8308443    2.6026261 
H     0.8085412    1.3773449    4.1219674 
C    -1.5181795   -1.6943607    3.2339462 
C    -1.8165603    1.3201539    2.5048391 
C    -0.9704197   -2.9966396    2.6315924 
H    -1.2229291   -3.8500825    3.2873705 
H    -1.4132684   -3.1823120    1.6411143 
H     0.1235087   -2.9507623    2.5218472 
C    -3.1966510    1.1852254    1.8083799 
H    -3.7590894    2.1242520    1.9640791 
H    -3.0689319    1.0399606    0.7212863 
H    -3.8087134    0.3599380    2.1934838 
C    -1.0355661   -1.5886830    4.7025534 
H    -1.5674465   -2.3618411    5.2866608 
H     0.0410711   -1.7975765    4.8196704 
H    -1.2521022   -0.6165420    5.1678892 
C    -3.0569603   -1.7635679    3.2278105 
H    -3.3626168   -2.7131718    3.7028509 
H    -3.5216096   -0.9470866    3.8028399 
H    -3.4670892   -1.7627402    2.2086188 
C    -2.0333221    1.5789227    4.0095405 
H    -2.5774319    2.5347787    4.1236537 
H    -2.6449568    0.7984151    4.4865028 
H    -1.0876486    1.6734865    4.5669700 
C    -1.1473727    2.5555633    1.8700010 
H    -1.0208019    2.4212696    0.7828513 
H    -1.8091361    3.4281139    2.0211988 
H    -0.1766015    2.8025076    2.3228972 
H     1.0326942    2.3313411    0.7451153 
C     1.0286923    4.7187446   -0.5915491 
C     0.8978443    3.2951990   -1.1612640 
C     1.5634564    2.2711102   -0.2186178 
C     3.0403574    2.6091810    0.0828109 
C     3.1373273    4.0399028    0.6487608 
C     2.4956154    5.0713074   -0.2948867 
H     0.4377476    4.7900385    0.3432954 
H     0.5877882    5.4424202   -1.3004414 
H     1.3720439    3.2589291   -2.1592489 
H    -0.1636073    3.0369361   -1.3169209 
H     3.4573436    1.8841346    0.8035848 
H     3.6550362    2.5359526   -0.8303958 
H     2.6251733    4.0757672    1.6316575 
H     4.1962285    4.2920671    0.8372711 
H     3.0637625    5.0965030   -1.2460204 
H     2.5662808    6.0838439    0.1408303 
H     0.8618684    0.8787366   -3.0186800 
C     1.8431186   -1.2304084   -4.5154112 
C     1.6974310   -1.1141218   -2.9888718 
C     1.7015215    0.3546052   -2.5241530 
C     2.9967928    1.0571614   -2.9923411 
C     3.1299736    0.9511190   -4.5249238 
C     3.1078848   -0.5079281   -5.0052224 
H     0.9528473   -0.7902876   -5.0060416 
H     1.8666410   -2.2961642   -4.8065908 
H     2.5411871   -1.6341584   -2.5024946 
H     0.7793927   -1.6213714   -2.6397157 
H     2.9927576    2.1188652   -2.7026040 
H     3.8800007    0.5973577   -2.5126123 
H     2.2938276    1.5068973   -4.9939021 
H     4.0607878    1.4511598   -4.8472268 
H     4.0004067   -1.0341904   -4.6123727 
H     3.1751685   -0.5521800   -6.1067259 
