98
Energy =
C    -1.2759765   -1.7119526   -2.1996391 
C    -0.8503351   -0.5272513   -2.8456295 
C     0.5232326   -0.2006127   -2.9735151 
H    -1.6028616    0.1994387   -3.1749678 
Pd   -0.0856987   -0.3466862   -0.7729408 
P     1.6358063    1.0349465    0.0992967 
P    -1.1310378   -1.0683398    1.2069198 
H    -0.5451654   -2.5302662   -2.1200378 
H     1.2403207   -1.0326133   -2.9260944 
C    -5.3707829   -3.0164622   -1.8824886 
C    -4.3160241   -3.9388994   -1.8186575 
C    -2.9908476   -3.4982681   -1.9248269 
C    -2.6875750   -2.1266298   -2.0957906 
C    -3.7651106   -1.2145267   -2.1833657 
C    -5.0886668   -1.6533029   -2.0740007 
H    -6.4075392   -3.3568466   -1.7956290 
H    -4.5249341   -5.0058426   -1.6902339 
H    -2.1736759   -4.2268477   -1.8844196 
H    -3.5692376   -0.1486746   -2.3371588 
H    -5.9065087   -0.9283176   -2.1399697 
C     1.9981449    3.2778024   -5.0344900 
C     0.7032423    3.2899321   -4.4872624 
C     0.2122773    2.1683578   -3.8127220 
C     1.0050331    1.0031785   -3.6720400 
C     2.3013854    1.0036848   -4.2357832 
C     2.7930503    2.1291661   -4.9098744 
H     2.3816984    4.1588869   -5.5586791 
H     0.0778465    4.1838063   -4.5803806 
H    -0.7847832    2.2085498   -3.3616644 
H     2.9229556    0.1048615   -4.1529202 
H     3.7989942    2.1078719   -5.3414322 
Fe    0.9283826    0.5079611    3.3406958 
C    -0.1303211   -1.0714497    2.7252886 
C    -0.5152864   -0.7074959    4.0752404 
H    -1.5075112   -0.3979881    4.4069914 
C     0.6489422   -0.7886885    4.9078198 
H     0.6889092   -0.5416993    5.9701753 
C     1.7532131   -1.2131694    4.0988344 
H     2.7819954   -1.3482185    4.4370359 
C     1.2796841   -1.3972174    2.7598164 
C     1.4272363    1.6824139    1.7936178 
C     2.4246618    1.7723671    2.8456678 
H     3.4805774    1.5129193    2.7652749 
C     1.7802576    2.2388783    4.0377406 
H     2.2623703    2.3815567    5.0064248 
C     0.3929693    2.4453813    3.7468189 
H    -0.3701494    2.7732378    4.4546920 
C     0.1710429    2.1102165    2.3722449 
H     1.8754195   -1.7155804    1.9029866 
H    -0.7866617    2.1469470    1.8532243 
C     2.2542752    2.5105288   -0.9267339 
C     3.7685594    2.2365965   -1.1481072 
C     4.3178767    1.3437888   -0.0243249 
C     3.3158654    0.1877416    0.2041287 
H     1.7365358    2.4410623   -1.8948331 
H     3.8960691    1.7297241   -2.1201278 
H     4.3249795    3.1879210   -1.2129249 
H     5.3230892    0.9563688   -0.2683527 
H     4.4245512    1.9356197    0.9013921 
H     3.3986374   -0.2154307    1.2285031 
C    -1.9430537   -2.7620944    1.2913614 
C    -3.1175596   -2.5279541    2.2621301 
C    -3.7871350   -1.2071672    1.8504946 
C    -2.6955735   -0.1165105    1.6681760 
H    -2.3621813   -2.9324035    0.2845507 
H    -3.8277110   -3.3735961    2.2212477 
H    -2.7406858   -2.4706809    3.3014075 
H    -4.3064490   -1.3539094    0.8845893 
H    -4.5448124   -0.8839036    2.5847744 
H    -2.4686398    0.3561256    2.6409688 
C    -3.0650408    0.9885559    0.6609547 
H    -2.1974168    1.6582273    0.5097552 
H    -3.2558116    0.5199304   -0.3200310 
C    -4.2845868    1.8130123    1.0930614 
H    -4.4975823    2.6120060    0.3622381 
H    -5.1886276    1.1849927    1.1762023 
H    -4.1144780    2.2900508    2.0755348 
C    -0.9971438   -3.9156933    1.6526418 
H    -0.5480645   -3.7242256    2.6452655 
H    -1.6100321   -4.8304711    1.7647646 
C     0.1059644   -4.1667980    0.6159017 
H     0.7165049   -3.2597240    0.4473818 
H     0.7835342   -4.9737210    0.9416736 
H    -0.3208994   -4.4601002   -0.3594017 
C     1.9088591    3.8825208   -0.3145053 
H     2.5075015    4.6420492   -0.8520765 
H     2.2279231    3.9292156    0.7433064 
C     0.4220179    4.2358375   -0.4478149 
H    -0.2223531    3.4614500    0.0055362 
H     0.1913941    5.1943959    0.0468237 
H     0.1367796    4.3190615   -1.5113273 
C     3.4440315   -0.9831179   -0.7942072 
H     3.4184475   -0.5916961   -1.8284719 
H     2.5507380   -1.6309554   -0.6915603 
C     4.7094168   -1.8247925   -0.5837304 
H     4.7474108   -2.6616319   -1.3019315 
H     5.6278506   -1.2278496   -0.7201185 
H     4.7340667   -2.2508707    0.4356218 
