94
Energy =
C     0.3579455    2.0852840    2.1451743 
C    -0.9590352    2.2947718    1.6321416 
C    -1.9691916    1.3149345    1.7788733 
H    -1.1348258    3.1571251    0.9770443 
Pd   -0.1382869    0.4894134    0.6945727 
P    -1.2586101   -0.9049711   -0.8131390 
P     2.0209731   -0.1925288    0.1962746 
H     0.4592577    1.4767180    3.0562853 
H    -1.8420721    0.5730896    2.5821871 
C     3.5771738    4.8478967    1.4068753 
C     2.6378453    4.5834194    0.3965377 
C     1.5952229    3.6804239    0.6255881 
C     1.4669656    3.0247961    1.8724074 
C     2.4267959    3.2881279    2.8718059 
C     3.4690634    4.1948002    2.6428785 
H     4.3947577    5.5533621    1.2265525 
H     2.7253907    5.0779839   -0.5765977 
H     0.8845390    3.4534832   -0.1781279 
H     2.3453242    2.7810895    3.8393223 
H     4.2022761    4.3894490    3.4325489 
C    -5.9922146    1.5286941    0.2715746 
C    -5.0609277    2.5135778   -0.0962706 
C    -3.7461547    2.4538094    0.3731111 
C    -3.3328330    1.4094372    1.2323737 
C    -4.2836618    0.4294034    1.5988594 
C    -5.5970766    0.4843406    1.1205829 
H    -7.0209386    1.5785970   -0.0997832 
H    -5.3625180    3.3324436   -0.7573137 
H    -3.0363798    3.2288220    0.0684709 
H    -3.9774173   -0.3821580    2.2648371 
H    -6.3173359   -0.2852588    1.4174395 
Fe    1.3454069   -1.0850590   -2.9661668 
C    -0.4150939   -1.7301349   -2.2123109 
C     0.5785826   -2.7821336   -2.1566255 
H     0.9261710   -3.2980649   -1.2631380 
C     1.0198344   -3.0393567   -3.4948470 
H     1.7836733   -3.7644660   -3.7814016 
C     0.3184572   -2.1581407   -4.3814714 
H     0.4540292   -2.0923810   -5.4624280 
C    -0.5689556   -1.3503992   -3.6002342 
C     2.3622319   -0.0527883   -1.5779734 
C     1.6511895    0.8476337   -2.4641314 
H     0.8689696    1.5480886   -2.1629640 
C     2.1281107    0.6146499   -3.7951022 
H     1.7709964    1.1131906   -4.6979853 
C     3.1222438   -0.4199381   -3.7437028 
H     3.6471302   -0.8446454   -4.6014664 
C     3.2714812   -0.8396750   -2.3813533 
H    -1.2341551   -0.5729089   -3.9778749 
H     3.9288022   -1.6289999   -2.0136086 
C    -2.4902848    0.0853314   -1.7007487 
C    -3.7626776   -0.1422480   -2.1724189 
C    -4.1199252    1.0106896   -2.9419353 
C    -3.0493794    1.8750846   -2.8954491 
H    -4.3647195   -1.0303868   -1.9828846 
H    -5.0643604    1.1903263   -3.4556972 
O    -2.0478201    1.3196749   -2.1374313 
C    -2.7977174    3.2380084   -3.4402463 
H    -1.8665941    3.2664793   -4.0339371 
H    -3.6347867    3.5437878   -4.0859581 
H    -2.6979449    3.9794201   -2.6255367 
C    -2.2084509   -2.2519354   -0.0779412 
C    -2.7863178   -3.3939579   -0.5930501 
C    -3.3945965   -4.0730360    0.5095573 
C    -3.1453850   -3.3131041    1.6328792 
H    -2.7680556   -3.7026532   -1.6387746 
H    -3.9468649   -5.0126213    0.4823021 
O    -2.4177401   -2.2065318    1.2837804 
C    -3.4926376   -3.4625128    3.0740537 
H    -4.0086085   -4.4207295    3.2366410 
H    -2.5864024   -3.4373446    3.7052996 
H    -4.1586389   -2.6483588    3.4142437 
C     3.4964756    0.5459012    0.9235544 
C     4.5381879    1.2772848    0.3928477 
C     5.4256487    1.5549462    1.4794849 
C     4.8725630    0.9852723    2.6050432 
H     4.6490285    1.5684066   -0.6513131 
H     6.3611954    2.1124698    1.4384282 
C     2.1929500   -1.9265610    0.6715680 
C     3.2435366   -2.8138969    0.7695388 
C     2.6843357   -4.0633912    1.1846181 
C     1.3267228   -3.8677696    1.3308914 
H     4.2922076   -2.5875028    0.5741800 
H     3.2187686   -4.9961803    1.3663645 
O     3.6903010    0.3727888    2.2756559 
O     1.0208272   -2.5677635    1.0251039 
C     5.2777489    0.9326294    4.0364596 
H     4.5563406    1.4787572    4.6720618 
H     5.3206667   -0.1091362    4.4005598 
H     6.2697742    1.3921401    4.1618362 
C     0.1925750   -4.7383909    1.7466369 
H    -0.2598978   -4.3727774    2.6859706 
H    -0.6011098   -4.7480883    0.9790377 
H     0.5479056   -5.7673681    1.9064224 
