124
Energy =
C     2.3177888    2.1414725   -2.0071439 
C     3.1522110    1.7869942   -0.9200066 
C     3.5878492    0.4345744   -0.7567212 
H     3.3539013    2.5141086   -0.1229084 
Pd    1.3767321    0.5433050   -0.6461283 
P     0.8313170   -1.3460911    0.5638421 
P    -0.9118257    1.1862011   -0.5812318 
H     2.3140407    1.4515651   -2.8661705 
H     3.7435655   -0.1514743   -1.6753371 
C     0.8121789    6.0442081   -2.9836831 
C     0.7836359    5.0072746   -3.9279263 
C     1.2674270    3.7397170   -3.5864612 
C     1.7853292    3.4789009   -2.2954914 
C     1.7964752    4.5328643   -1.3525037 
C     1.3200956    5.8002835   -1.6970183 
H     0.4418321    7.0400310   -3.2475160 
H     0.3963189    5.1896338   -4.9355732 
H     1.2710440    2.9409664   -4.3369011 
H     2.1786013    4.3620045   -0.3418344 
H     1.3407832    6.6056029   -0.9563315 
C     5.7205542   -1.0108115    2.6957694 
C     4.6768875   -0.0828284    2.8543589 
C     3.9897325    0.4022310    1.7369867 
C     4.3309401   -0.0330865    0.4348927 
C     5.3835265   -0.9624038    0.2900853 
C     6.0740281   -1.4446494    1.4103252 
H     6.2532249   -1.3944595    3.5718744 
H     4.3929641    0.2571788    3.8561127 
H     3.1521306    1.0970992    1.8736694 
H     5.6586216   -1.3171816   -0.7087524 
H     6.8798488   -2.1723058    1.2767546 
Fe   -1.0852442   -0.9963781    3.6676604 
C     0.1278252   -0.6451473    2.0761427 
C    -0.9961380    0.2811921    2.0669146 
C    -0.9627886    1.0090994    3.3063390 
C     0.1645168    0.5614864    4.0706313 
C     0.8438131   -0.4532965    3.3244834 
C    -2.8220650   -1.1104557    4.7234322 
C    -2.8538227   -2.0430491    3.6331032 
C    -1.7521618   -2.9500914    3.8005760 
C    -1.0337539   -2.5729512    4.9832086 
C    -1.6996685   -1.4388868    5.5576803 
C     1.9388674   -2.6989354    1.1144258 
C     3.0047676   -3.1250933    0.3027917 
C     3.7972575   -4.2047719    0.7107122 
C     3.5400990   -4.8656658    1.9243908 
C     2.4678507   -4.4439510    2.7181148 
C     1.6620331   -3.3705033    2.3140934 
C    -0.4580309   -2.2718415   -0.3731602 
C    -1.6131751   -2.7592780    0.2488357 
C    -2.6097020   -3.3804949   -0.5184251 
C    -2.4371427   -3.5715951   -1.8941918 
C    -1.2661488   -3.1024046   -2.5100539 
C    -0.2884626   -2.4357732   -1.7612262 
C    -1.9150102    0.5036688    0.8957605 
H    -1.6916318    1.7553162    3.6247387 
H     0.4372588    0.9042969    5.0703247 
H     1.7493729   -0.9765325    3.6342902 
H    -3.5206541   -0.2873765    4.8847048 
H    -3.5946463   -2.0656897    2.8322909 
H    -1.5093267   -3.7970837    3.1559787 
H    -0.1408004   -3.0632360    5.3746787 
H    -1.3940579   -0.9053120    6.4594463 
H     3.2189509   -2.6209286   -0.6425625 
H     0.8173865   -3.0540456    2.9329247 
H    -1.7450563   -2.5998931    1.3226509 
H     0.5917286   -2.0231525   -2.2651812 
H    -2.2405455   -0.4803869    0.5226001 
C    -3.1559557    1.3439561    1.2269136 
H    -3.7401312    0.8274071    2.0089350 
H    -2.8805963    2.3451516    1.5949565 
H    -3.7979138    1.4792415    0.3419216 
C     4.9542401   -4.6787736   -0.1437177 
F     4.7715117   -5.9515051   -0.5551182 
F     5.1171939   -3.9084587   -1.2480336 
F     6.1186963   -4.6463729    0.5504215 
C     2.1359530   -5.1087598    4.0356069 
F     2.2784592   -4.2287323    5.0655001 
F     0.8409058   -5.5179251    4.0589923 
F     2.9161757   -6.1732768    4.2918598 
C    -3.9095554   -3.7370874    0.1622743 
F    -4.7203555   -4.4784243   -0.6118053 
F    -3.7055986   -4.3975018    1.3249238 
F    -4.5918828   -2.5898894    0.4841481 
C    -1.0567768   -3.3249007   -3.9931842 
F    -2.2303399   -3.3232180   -4.6690099 
F    -0.2672213   -2.3613479   -4.5334657 
F    -0.4569587   -4.5118848   -4.2314821 
H     4.1662115   -5.7027285    2.2448862 
H    -3.2180795   -4.0555349   -2.4851776 
C    -3.0348946   -0.2597260   -4.4248044 
C    -1.8347820    0.4714963   -4.5081173 
C    -1.2439833    0.9151991   -3.3136334 
C    -1.8401196    0.6474990   -2.0644285 
C    -3.0398753   -0.0869697   -2.0112501 
C    -3.6470859   -0.5527963   -3.1932241 
H    -3.4940137   -0.6327901   -5.3476696 
H    -0.3019838    1.4721163   -3.3499203 
H    -3.5156676   -0.3287394   -1.0564795 
C    -1.1713487    0.7124516   -5.8446793 
H    -0.4103220    1.5080064   -5.7839489 
H    -0.6713991   -0.2113006   -6.1897234 
H    -1.9084959    0.9958793   -6.6149920 
C    -4.9288993   -1.3539871   -3.1425723 
H    -4.8747818   -2.2213873   -3.8230673 
H    -5.1399286   -1.7201373   -2.1246648 
H    -5.7897942   -0.7396177   -3.4647473 
C    -1.4742381    5.7080857    0.1018474 
C    -0.7140377    4.9446917    1.0125444 
C    -0.5247790    3.5818816    0.7397133 
C    -1.1099430    2.9924802   -0.4027896 
C    -1.8484428    3.7728902   -1.3024855 
C    -2.0305886    5.1506754   -1.0616922 
H    -1.6233870    6.7763332    0.3006067 
H     0.0722403    2.9667430    1.4251148 
H    -2.2948307    3.3124105   -2.1903147 
C    -0.0762766    5.5942843    2.2200151 
H     0.2581670    4.8438505    2.9555247 
H     0.8086436    6.1879354    1.9203885 
H    -0.7745600    6.2861546    2.7216363 
C    -2.7997590    5.9947407   -2.0515163 
H    -2.2503700    6.0568382   -3.0090931 
H    -3.7879178    5.5532290   -2.2706782 
H    -2.9539814    7.0203622   -1.6793998 
