124
Energy =
C    -0.6191344    2.4019651   -2.4823034 
C    -0.8400650    1.2180450   -3.2153211 
C    -1.9608810    0.3722090   -2.9461011 
H    -0.0734442    0.8642718   -3.9167355 
Pd   -0.6541619    0.5174551   -1.1432392 
P    -1.3990487   -1.3139815    0.1106777 
P     1.0796704    1.1151071    0.3702400 
H    -1.4793689    2.8178014   -1.9362611 
H    -2.8849574    0.8536008   -2.5945866 
C     2.6337857    5.1849889   -2.9086773 
C     1.5875678    5.4321788   -2.0062496 
C     0.5261995    4.5262398   -1.9002902 
C     0.4952663    3.3425655   -2.6751730 
C     1.5443400    3.1206017   -3.5977487 
C     2.5978937    4.0335633   -3.7129436 
H     3.4638647    5.8929588   -2.9983439 
H     1.5944366    6.3374935   -1.3904249 
H    -0.2960698    4.7295644   -1.2054960 
H     1.5434419    2.2260155   -4.2280384 
H     3.3990258    3.8469931   -4.4354845 
C    -2.4831414   -3.2873529   -5.1646125 
C    -1.2113995   -2.9347186   -4.6815367 
C    -1.0387278   -1.7515963   -3.9553253 
C    -2.1351903   -0.8969466   -3.6877547 
C    -3.4068761   -1.2671911   -4.1731136 
C    -3.5769508   -2.4466274   -4.9121053 
H    -2.6187324   -4.2116013   -5.7353451 
H    -0.3526767   -3.5877997   -4.8698131 
H    -0.0487589   -1.4942962   -3.5605421 
H    -4.2676263   -0.6179961   -3.9781827 
H    -4.5700611   -2.7106372   -5.2901450 
Fe    2.9108319   -1.6170502    2.1034691 
C     1.4958948   -0.1675225    1.6121316 
C     0.9182376   -1.5114267    1.6656602 
C     1.1310369   -2.0230259    2.9945455 
C     1.8655435   -1.0573743    3.7526466 
C     2.1213908    0.0645455    2.9029963 
C     3.7250267   -3.4085111    1.5194963 
C     4.1544817   -2.3661069    0.6357989 
C     4.8379134   -1.3744697    1.4187641 
C     4.8323746   -1.8041318    2.7837111 
C     4.1426497   -3.0610922    2.8474373 
C     0.1420583   -2.2624581    0.6099151 
H     0.8247158   -3.0122668    3.3419910 
H     2.2198677   -1.1782874    4.7780906 
H     2.6921812    0.9468565    3.1852950 
H     3.1707664   -4.3070032    1.2419716 
H     4.0084170   -2.3407252   -0.4445917 
H     5.2927972   -0.4601752    1.0396987 
H     5.2536285   -1.2596707    3.6308397 
H     3.9437686   -3.6378561    3.7527492 
H     0.9365412    3.4614193    0.5061077 
C     0.8153980    4.4904615    3.0530262 
C     1.2278319    3.0716974    2.6124898 
C     0.5897492    2.7182445    1.2524533 
C    -0.9437049    2.8375456    1.3661648 
C    -1.3827868    4.2370614    1.8285212 
C    -0.7112444    4.6261360    3.1541977 
H     1.2063101    5.2260738    2.3223349 
H     1.2901871    4.7252448    4.0225142 
H     0.8815220    2.3462970    3.3712939 
H     2.3270412    3.0019716    2.5709859 
H    -1.4153323    2.5853224    0.3980901 
H    -1.2994017    2.0873412    2.0949716 
H    -1.1133596    4.9786606    1.0503783 
H    -2.4832565    4.2655936    1.9246779 
H    -1.0826123    3.9606729    3.9586665 
H    -0.9907892    5.6554075    3.4408876 
H     2.2827401    2.4569057   -1.1691108 
C     4.2799792    0.8367326   -2.3552080 
C     3.0415908    0.4650357   -1.5210823 
C     2.6257043    1.5978751   -0.5630389 
C     3.7983848    2.0685776    0.3186449 
C     5.0200281    2.4442356   -0.5435820 
C     5.4490276    1.2954580   -1.4700717 
H     4.0113535    1.6558456   -3.0478124 
H     4.5791666   -0.0246862   -2.9796018 
H     3.2496995   -0.4369020   -0.9179925 
H     2.1918577    0.2192507   -2.1875116 
H     3.4960558    2.9439109    0.9179806 
H     4.0631169    1.2621112    1.0270802 
H     4.7610059    3.3287492   -1.1580805 
H     5.8557949    2.7463576    0.1131356 
H     5.8098587    0.4415963   -0.8640613 
H     6.3014562    1.6103142   -2.0979534 
H    -1.2940115   -0.2248272    2.1840994 
C    -2.8901594   -1.3409744    4.0927313 
C    -2.5171094   -1.9183253    2.7137844 
C    -2.1492605   -0.7763556    1.7406568 
C    -3.3198234    0.2260240    1.6068820 
C    -3.6949546    0.7986639    2.9866723 
C    -4.0357652   -0.3210924    3.9844302 
H    -1.9963963   -0.8517475    4.5282241 
H    -3.1676359   -2.1629363    4.7769016 
H    -3.3778875   -2.4841390    2.3108595 
H    -1.6813024   -2.6314977    2.8176296 
H    -3.0542899    1.0333975    0.9019609 
H    -4.2026049   -0.2824646    1.1839386 
H    -2.8464688    1.3923151    3.3816561 
H    -4.5451043    1.4964193    2.8813886 
H    -4.9541752   -0.8409885    3.6472308 
H    -4.2627908    0.1067122    4.9771107 
H    -2.1342220   -2.6005971   -1.7637689 
C    -4.8582114   -3.1627477   -1.5076399 
C    -3.9759246   -2.1660599   -0.7344690 
C    -2.4935164   -2.6055144   -0.7170802 
C    -2.3486491   -4.0493800   -0.1796640 
C    -3.2382992   -5.0218780   -0.9784230 
C    -4.7110405   -4.5881028   -0.9567469 
H    -4.5655458   -3.1544056   -2.5724070 
H    -5.9109529   -2.8302125   -1.4601482 
H    -4.3493394   -2.1069457    0.3041690 
H    -4.0663900   -1.1533759   -1.1689462 
H    -1.3003431   -4.3875370   -0.2470263 
H    -2.6326853   -4.0881239    0.8880845 
H    -2.8813264   -5.0556106   -2.0265812 
H    -3.1239839   -6.0413418   -0.5680871 
H    -5.0905634   -4.6275453    0.0838065 
H    -5.3273596   -5.2913370   -1.5446658 
H    -0.2043734   -3.1965226    1.0831516 
C     0.9253427   -2.6201774   -0.6669862 
H     0.2710648   -3.0881657   -1.4232216 
H     1.3708899   -1.7181940   -1.1149721 
H     1.7344527   -3.3260492   -0.4256706 
