112
Energy =
C     1.5544806   -3.0539357    0.5092202 
C     2.1016162   -2.6327215   -0.7315211 
C     3.0115793   -1.5496834   -0.8122920 
H     1.7160050   -3.0715961   -1.6593753 
Pd    1.0143185   -0.8805954    0.0503730 
P     1.0385812    1.2457478   -0.9253186 
P    -0.9706109   -0.4984418    1.2499615 
H     2.1471392   -2.8299159    1.4083253 
H     3.5564757   -1.2876163    0.1072743 
C    -1.2234364   -6.3088025    1.0390573 
C    -1.0581164   -5.7351377   -0.2327242 
C    -0.1596917   -4.6805328   -0.4217863 
C     0.5977086   -4.1679598    0.6577590 
C     0.4425362   -4.7786017    1.9232487 
C    -0.4610070   -5.8308134    2.1151484 
H    -1.9302567   -7.1319597    1.1849215 
H    -1.6355921   -6.1125975   -1.0831784 
H    -0.0573753   -4.2454661   -1.4209526 
H     1.0531730   -4.4316098    2.7629381 
H    -0.5609137   -6.2862582    3.1059922 
C     5.0079486   -0.2127061   -4.3819530 
C     5.3713931    0.2924264   -3.1247839 
C     4.6972893   -0.1361971   -1.9750694 
C     3.6402829   -1.0723402   -2.0566579 
C     3.2685284   -1.5511887   -3.3347493 
C     3.9518725   -1.1336926   -4.4801015 
H     5.5426227    0.1093108   -5.2815036 
H     6.1914997    1.0124586   -3.0360322 
H     4.9994400    0.2486674   -0.9956570 
H     2.4413004   -2.2594205   -3.4404116 
H     3.6542231   -1.5240618   -5.4583479 
Fe   -1.0661625    4.0581871   -0.0210898 
C    -0.4944219    2.2104891   -0.6777089 
C    -1.3803922    2.1110860    0.4753821 
C    -2.6185383    2.7553567    0.1185378 
C    -2.5085111    3.2614676   -1.2184074 
C    -1.2030062    2.9394027   -1.7099584 
C    -1.2132367    6.0573652   -0.4028980 
C    -1.7763227    5.7481989    0.8800462 
C    -0.7471609    5.1560858    1.6841443 
C     0.4508022    5.0873031    0.8978567 
C     0.1621509    5.6512435   -0.3923393 
C     1.0372670    1.0259327   -2.7501363 
C     2.0045765    1.5575113   -3.6202927 
C     1.8958243    1.3438056   -5.0033688 
C     0.8384922    0.5879394   -5.5253246 
C    -0.1142903    0.0285825   -4.6571331 
C    -0.0158568    0.2443810   -3.2785864 
C     2.4596503    2.3166197   -0.4894656 
C     3.3304994    1.9223725    0.5446128 
C     4.3986743    2.7478575    0.9253842 
C     4.6095771    3.9682130    0.2668416 
C     3.7448581    4.3675850   -0.7656511 
C     2.6693882    3.5510796   -1.1372777 
C    -1.1333348    1.3214754    1.7341920 
H    -3.4823161    2.8673657    0.7773119 
H    -3.2701796    3.8320619   -1.7529329 
H    -0.8068293    3.1778489   -2.6983374 
H    -1.7449201    6.5015529   -1.2464029 
H    -2.8116784    5.9140156    1.1835843 
H    -0.8664877    4.8163277    2.7141378 
H     1.4091326    4.6736124    1.2160118 
H     0.8610128    5.7624299   -1.2211906 
H     2.8589691    2.1157082   -3.2296962 
H    -0.7651692   -0.1871462   -2.6049985 
H     3.1649034    0.9660736    1.0542081 
H     1.9826762    3.8756774   -1.9243722 
H     2.6566804    1.7608347   -5.6706920 
H    -0.9377350   -0.5736782   -5.0552609 
H     5.0666236    2.4365567    1.7350838 
H     3.9045395    5.3230455   -1.2760933 
H     0.7601662    0.4242061   -6.6050669 
H     5.4450431    4.6121233    0.5601688 
H    -2.0379697    1.4000433    2.3611371 
C     0.0880697    1.7747940    2.5509325 
H     0.2150721    1.1672936    3.4616638 
H     1.0147165    1.7011352    1.9584823 
H    -0.0360257    2.8262943    2.8493382 
H    -1.6285404   -2.4634428    2.4241852 
H    -2.2391019    0.0335238   -0.6626613 
C    -2.6312213   -1.8593537    4.9388827 
C    -2.3608715   -0.9041083    3.7599772 
C    -1.2795026   -1.4864244    2.8175321 
C     0.0166910   -1.7412029    3.6215871 
C    -0.2464540   -2.6942743    4.8019956 
C    -1.3468666   -2.1538344    5.7289060 
H    -3.0513457   -2.8064107    4.5470167 
H    -3.4009100   -1.4197598    5.5983575 
H    -2.0017277    0.0625045    4.1635117 
H    -3.2986619   -0.6974120    3.2214549 
H     0.8001947   -2.1422174    2.9595326 
H     0.4013411   -0.7809769    4.0137350 
H    -0.5593713   -3.6792921    4.4055768 
H     0.6909721   -2.8582419    5.3636911 
H    -0.9943829   -1.2214540    6.2127169 
H    -1.5512940   -2.8734264    6.5414191 
C    -4.8637136   -0.7244021   -0.4957392 
C    -3.8276162   -0.6177417    0.6398737 
C    -2.4019948   -0.7782087    0.0750996 
C    -2.2528565   -2.1203283   -0.6679018 
C    -3.3024696   -2.2541657   -1.7849036 
C    -4.7301793   -2.0584546   -1.2487667 
H    -4.7133996    0.1180770   -1.1995764 
H    -5.8817944   -0.6151634   -0.0810355 
H    -4.0220151   -1.4184387    1.3783070 
H    -3.9377834    0.3471248    1.1649324 
H    -1.2329351   -2.1940693   -1.0881789 
H    -2.3581669   -2.9594482    0.0451766 
H    -3.0971270   -1.4924940   -2.5641272 
H    -3.2020234   -3.2412349   -2.2717295 
H    -4.9760353   -2.8900249   -0.5591975 
H    -5.4606715   -2.1076997   -2.0758299 
