98
Energy =
C    -0.9363865   -1.9436382   -2.3081439 
C    -0.6775757   -0.6954386   -2.9202677 
C     0.6509366   -0.2043414   -3.0339761 
H    -1.5173597   -0.0572419   -3.2212385 
Pd    0.0632772   -0.4594292   -0.8567577 
P     1.7012054    1.0153562    0.0052270 
P    -1.0631853   -1.1016168    1.1182224 
H    -0.0997726   -2.6560859   -2.2543478 
H     1.4522208   -0.9562723   -3.0509170 
C    -4.7871588   -3.7974569   -1.8339834 
C    -4.7056598   -2.4050370   -2.0115484 
C    -3.4630847   -1.7874979   -2.1823293 
C    -2.2701729   -2.5489976   -2.1699644 
C    -2.3694463   -3.9498879   -2.0051108 
C    -3.6150645   -4.5682346   -1.8404315 
H    -5.7614167   -4.2776266   -1.6979507 
H    -5.6178014   -1.7993400   -2.0151046 
H    -3.4177619   -0.7008412   -2.3065920 
H    -1.4560012   -4.5545847   -1.9970298 
H    -3.6705183   -5.6542484   -1.7140180 
C     1.6948129    3.5368105   -4.8880857 
C     0.4209650    3.3725001   -4.3168135 
C     0.0732972    2.1660928   -3.7020997 
C     0.9879165    1.0873885   -3.6586361 
C     2.2639058    1.2656968   -4.2409588 
C     2.6153287    2.4792481   -4.8463429 
H     1.9661139    4.4852115   -5.3625549 
H    -0.2998553    4.1960897   -4.3413795 
H    -0.9100846    2.0673794   -3.2300139 
H     2.9820234    0.4382699   -4.2279042 
H     3.6073903    2.5961464   -5.2944037 
Fe    1.0738265    0.3374261    3.2874650 
C    -0.0633276   -1.1719319    2.6329596 
C    -0.4360271   -0.8140340    3.9880083 
H    -1.4132097   -0.4605388    4.3204605 
C     0.7165788   -0.9769999    4.8245632 
H     0.7634076   -0.7563439    5.8924301 
C     1.8024068   -1.4389400    4.0110079 
H     2.8211158   -1.6319611    4.3515778 
C     1.3301797   -1.5645670    2.6642084 
C     1.5978169    1.5183521    1.7568788 
C     2.6367136    1.5164691    2.7695203 
H     3.6712297    1.1966830    2.6382931 
C     2.0675598    1.9869706    3.9979407 
H     2.5922371    2.0681221    4.9515064 
C     0.6880491    2.2946353    3.7653464 
H    -0.0246830    2.6534955    4.5097936 
C     0.3946045    2.0164715    2.3908487 
H     1.9154070   -1.8815883    1.8013015 
H    -0.5704870    2.1499416    1.9020740 
C     2.0548440    2.6723669   -0.8070995 
C     3.5026526    2.9497138   -0.3552024 
C     4.3058769    1.6572336   -0.5811369 
C     3.4872733    0.4019149   -0.1435626 
H     2.0587991    2.4650495   -1.8923388 
H     3.9398982    3.7854815   -0.9289406 
H     3.5120745    3.2469274    0.7101652 
H     4.5167698    1.5631952   -1.6624780 
H     5.2807633    1.6817035   -0.0644555 
H     3.7676180    0.0815987    0.8750635 
C    -2.1051313   -2.6580345    1.1824381 
C    -3.1935153   -2.3046058    2.2138253 
C    -3.7103481   -0.9056501    1.8358223 
C    -2.5053185    0.0386213    1.5540501 
H    -2.5896202   -2.6588194    0.1910712 
H    -4.0057725   -3.0539284    2.1972148 
H    -2.7749026   -2.3039812    3.2369535 
H    -4.3152592   -0.9889229    0.9133771 
H    -4.3645546   -0.4834582    2.6175866 
H    -2.1976609    0.5487889    2.4847362 
C    -2.7835463    1.1062540    0.4769932 
H    -1.8459566    1.6451838    0.2400817 
H    -3.0793814    0.5961733   -0.4590294 
C    -3.8668418    2.1104950    0.8922495 
H    -4.0243725    2.8685759    0.1058355 
H    -4.8340854    1.6113833    1.0758881 
H    -3.5804621    2.6392464    1.8197404 
C    -1.3590084   -4.0005102    1.3356087 
H    -2.0121249   -4.7805590    0.9008874 
H    -0.4571751   -3.9795756    0.6921257 
C    -0.9766573   -4.4175046    2.7628681 
H    -1.8723190   -4.5477863    3.3946539 
H    -0.4443421   -5.3839426    2.7431559 
H    -0.3203231   -3.6815246    3.2544101 
C     1.0171939    3.7663872   -0.5094279 
H     0.9475532    3.9221713    0.5828526 
H     0.0237890    3.4102368   -0.8444245 
C     1.3391687    5.1038590   -1.1921817 
H     1.4595538    4.9749766   -2.2816428 
H     0.5286026    5.8327612   -1.0203430 
H     2.2708730    5.5441899   -0.7969723 
C     3.7173985   -0.7829599   -1.1013610 
H     4.8130603   -0.9069871   -1.1996634 
H     3.3613912   -0.4993596   -2.1082686 
C     3.0998943   -2.1180115   -0.6791767 
H     3.3006398   -2.9021119   -1.4293077 
H     3.5109440   -2.4642858    0.2858539 
H     1.9975613   -2.0320044   -0.5692245 
