132
Energy =
C     1.2075225   -0.8899647   -3.2704868 
C     1.5718033    0.4443620   -2.9401125 
C     2.4984073    0.7540745   -1.9162638 
H     1.0112581    1.2689369   -3.3991380 
Pd    0.7541505   -0.4447782   -1.0917177 
P     0.5080049    0.6547881    0.9421750 
P    -0.7636588   -2.1514935   -0.5219585 
H     1.9531001   -1.6804498   -3.0988154 
H     3.2347234   -0.0189358   -1.6469659 
C    -1.8215893   -1.8648671   -6.1836659 
C    -1.8339108   -0.6085557   -5.5541653 
C    -0.8562145   -0.2811233   -4.6103510 
C     0.1686775   -1.1975160   -4.2748757 
C     0.1788913   -2.4482216   -4.9340082 
C    -0.8073550   -2.7819651   -5.8718170 
H    -2.5927366   -2.1219306   -6.9168469 
H    -2.6193261    0.1162346   -5.7933836 
H    -0.9077945    0.6906562   -4.1083073 
H     0.9806701   -3.1612165   -4.7149286 
H    -0.7756646   -3.7576782   -6.3678697 
C     3.6653731    4.7339009   -0.7636886 
C     4.5129794    3.6406285   -0.5373258 
C     4.1110119    2.3505921   -0.9009025 
C     2.8603545    2.1263229   -1.5168149 
C     2.0147995    3.2391086   -1.7356559 
C     2.4109377    4.5258287   -1.3603515 
H     3.9782401    5.7436237   -0.4779433 
H     5.4934146    3.7913095   -0.0768391 
H     4.7781491    1.5016115   -0.7174139 
H     1.0302681    3.1013877   -2.1916934 
H     1.7376754    5.3716489   -1.5336776 
Fe    0.6935888   -1.4977661    3.8407777 
C    -0.0725529   -0.3440288    2.3458535 
C    -0.6121037   -1.6987790    2.3079415 
C    -1.2773633   -1.9180468    3.5706638 
C    -1.1218906   -0.7537683    4.3907020 
C    -0.3637195    0.2091662    3.6545138 
C     1.7945305   -1.5409284    5.5614790 
C     1.3193271   -2.8547362    5.2319671 
C     1.8288592   -3.1988734    3.9345711 
C     2.6117764   -2.0957180    3.4611830 
C     2.5885334   -1.0657545    4.4667064 
C    -0.8759881    1.8326241    0.6081927 
C    -1.1935284    2.1017223   -0.7363914 
C    -2.2520501    2.9483357   -1.1005063 
C    -3.0159458    3.5298134   -0.0636817 
C    -2.7197914    3.2912813    1.3005763 
C    -1.6493346    2.4398487    1.6176828 
C     1.8802685    1.6448045    1.6384917 
C     3.1037471    0.9894724    1.8700204 
C     4.1723197    1.6424106    2.5002765 
C     3.9946870    2.9949787    2.8783864 
C     2.7937464    3.6915816    2.6140937 
C     1.7427882    2.9979328    1.9880493 
C    -0.4294021   -2.7588820    1.2298601 
H    -1.7763212   -2.8356704    3.8828949 
H    -1.4771591   -0.6454052    5.4170294 
H    -0.0377517    1.1886330    4.0101247 
H     1.5627755   -0.9858104    6.4723008 
H     0.6649527   -3.4735258    5.8489045 
H     1.6430383   -4.1320788    3.3987432 
H     3.1305819   -2.0520679    2.5020859 
H     3.0706001   -0.0900302    4.4026514 
H    -0.6061662    1.6161967   -1.5258596 
H    -1.4355750    2.2458200    2.6718531 
H     3.2221304   -0.0546918    1.5610758 
H     0.8059056    3.5264011    1.7844257 
H     0.6552339   -2.9633818    1.1656793 
H    -0.3481528   -3.1321510   -2.6164491 
H    -3.0845222   -2.8052247   -0.6464369 
C    -4.3318598   -0.8743947   -2.3017585 
C    -2.8441699   -1.1890665   -2.0779857 
C    -2.5915362   -1.8148250   -0.6893905 
C    -3.1683893   -0.9367839    0.4410579 
C    -4.6573471   -0.6292756    0.1969955 
C    -4.8820766    0.0178019   -1.1783150 
H    -4.9068140   -1.8204109   -2.3392122 
H    -4.4581463   -0.3895671   -3.2871799 
H    -2.2582019   -0.2528220   -2.1446627 
H    -2.4688850   -1.8496083   -2.8790569 
H    -3.0430421   -1.4333096    1.4176933 
H    -2.6067476    0.0122479    0.4935717 
H    -5.2432340   -1.5675046    0.2616933 
H    -5.0277933    0.0317575    1.0014677 
H    -4.3584171    0.9926043   -1.2009202 
H    -5.9556994    0.2250879   -1.3378290 
C    -0.9699333   -6.0770849   -2.1372365 
C    -1.5550847   -4.6976374   -1.7563231 
C    -0.4345299   -3.6231904   -1.6315377 
C     0.9454370   -4.2478507   -1.3248344 
C     1.3931821   -5.1960411   -2.4645858 
C     0.1944733   -5.9217518   -3.1270745 
H    -1.7690026   -6.7090810   -2.5621632 
H    -0.6121497   -6.5998192   -1.2289808 
H    -2.1466771   -4.7938001   -0.8308665 
H    -2.2599615   -4.3677829   -2.5403157 
H     1.6996958   -3.4523212   -1.1703270 
H     0.8926047   -4.8114541   -0.3758991 
H     1.9551600   -4.6263732   -3.2269530 
H     2.1026481   -5.9341358   -2.0502280 
H     0.5137510   -6.9038032   -3.5157836 
H    -0.1635590   -5.3426315   -3.9997974 
C    -1.1436594   -4.0715000    1.5965119 
H    -0.8123710   -4.4039657    2.5952135 
H    -2.2397557   -3.9484337    1.6229746 
H    -0.9005305   -4.8763969    0.8880282 
C    -2.5620335    3.2267562   -2.5528418 
H    -3.0269048    4.2188744   -2.6692307 
H    -1.6455878    3.1907923   -3.1662003 
H    -3.2630588    2.4753031   -2.9642382 
C    -3.5476961    3.9602135    2.3719607 
H    -3.1160326    3.7921987    3.3715634 
H    -3.6186224    5.0456824    2.1874098 
H    -4.5823150    3.5712096    2.3779251 
O    -4.0286884    4.4133855   -0.3590175 
C    -5.3009239    3.8420993   -0.6949263 
H    -6.0002372    4.6851143   -0.7966742 
H    -5.2580325    3.2847182   -1.6493556 
H    -5.6552562    3.1609045    0.1017437 
C     5.4814407    0.9394838    2.7717768 
H     6.2290975    1.1757351    1.9904546 
H     5.9050729    1.2655267    3.7358194 
H     5.3525930   -0.1552361    2.7869809 
C     2.6488119    5.1431392    3.0022617 
H     3.2094564    5.3581070    3.9263889 
H     3.0492129    5.8019547    2.2081486 
H     1.5901869    5.4125027    3.1489395 
O     4.9947639    3.6240676    3.5893208 
C     5.9651196    4.3563480    2.8330413 
H     6.6380806    4.8261772    3.5656827 
H     6.5531095    3.6866048    2.1764751 
H     5.4888316    5.1414384    2.2159770 
