124
Energy =
C    -0.7803096    2.4709155   -2.0171005 
C    -1.6442913    1.5155407   -2.6254861 
C    -2.7349802    0.9742996   -1.9049146 
H    -1.3968530    1.1157994   -3.6166030 
Pd   -0.7267967    0.5410045   -0.8706237 
P    -1.1624007   -1.5558565    0.0807349 
P     1.1850384    1.1080509    0.4154659 
H    -1.2257323    3.0958216   -1.2283195 
H    -3.0716572    1.5433791   -1.0246738 
C     2.6874335    4.2295164   -3.8774801 
C     2.0092995    4.9000551   -2.8490588 
C     0.8758781    4.3224757   -2.2622482 
C     0.4054553    3.0538193   -2.6754759 
C     1.0993516    2.3931243   -3.7159609 
C     2.2195461    2.9782845   -4.3144314 
H     3.5697140    4.6803922   -4.3428171 
H     2.3540914    5.8831709   -2.5120950 
H     0.3330970    4.8696337   -1.4828095 
H     0.7669126    1.4053266   -4.0524687 
H     2.7390930    2.4512796   -5.1212265 
C    -5.7809580   -1.6871979   -3.3772894 
C    -5.9532984   -0.9873393   -2.1735727 
C    -4.9479474   -0.1295147   -1.7133944 
C    -3.7420470    0.0395450   -2.4342159 
C    -3.5926224   -0.6585234   -3.6548801 
C    -4.6018702   -1.5084232   -4.1200017 
H    -6.5664357   -2.3553380   -3.7446388 
H    -6.8770567   -1.1019803   -1.5971306 
H    -5.0982659    0.4358127   -0.7865663 
H    -2.6846983   -0.5351482   -4.2533359 
H    -4.4705082   -2.0332472   -5.0717909 
Fe    2.6032273   -1.2187521    2.9800224 
C     1.3552674    0.0228051    1.8832839 
C     0.8225767   -1.3346337    1.9884591 
C     0.6587496   -1.6349604    3.3870409 
C     1.1030011   -0.5111651    4.1551397 
C     1.5536209    0.4948396    3.2417089 
C     4.6132380   -0.8255874    3.1059137 
C     4.1229084   -1.3808586    4.3323535 
C     3.5622794   -2.6706935    4.0439762 
C     3.7114911   -2.9166104    2.6390321 
C     4.3609769   -1.7780339    2.0591680 
C     0.3987715   -2.2544227    0.8705594 
H     0.2935112   -2.5830774    3.7876801 
H     1.1411985   -0.4504279    5.2443173 
H     1.9650462    1.4640741    3.5221158 
H     5.0947183    0.1469139    2.9939898 
H     4.1464550   -0.8971179    5.3106010 
H     3.0842597   -3.3371334    4.7645147 
H     3.3835208   -3.8129842    2.1095303 
H     4.6260224   -1.6601090    1.0069022 
H     0.5468667    3.3254084    0.0862833 
C     1.2851082    5.1187769    2.0083265 
C     1.8304109    3.7013117    1.7372967 
C     0.7524093    2.8322670    1.0535083 
C    -0.5680845    2.8147748    1.8513183 
C    -1.0801439    4.2389436    2.1275222 
C    -0.0125076    5.0916768    2.8290455 
H     1.0935962    5.6201425    1.0386088 
H     2.0602394    5.7153780    2.5216544 
H     2.1544855    3.2495806    2.6922026 
H     2.7219843    3.7797142    1.0943872 
H    -1.3263526    2.2395339    1.2890496 
H    -0.4176526    2.2829285    2.8093966 
H    -1.3572811    4.7180864    1.1665904 
H    -2.0030515    4.1900082    2.7331465 
H     0.1951892    4.6661555    3.8308061 
H    -0.3848333    6.1185116    2.9928272 
H     2.6352498    2.3654167   -0.9644353 
C     4.3314348    0.7261751   -2.4072423 
C     3.0683071    0.3536702   -1.6118730 
C     2.8057923    1.3773323   -0.4886577 
C     4.0289001    1.4455406    0.4474318 
C     5.3069608    1.8038479   -0.3329236 
C     5.5588921    0.8201751   -1.4866069 
H     4.1690253    1.7000882   -2.9056798 
H     4.5007084   -0.0184562   -3.2061551 
H     3.2195860   -0.6419461   -1.1584642 
H     2.1878673    0.2813038   -2.2752005 
H     3.8744133    2.1600252    1.2706846 
H     4.1339054    0.4568277    0.9188143 
H     5.2077547    2.8300069   -0.7386948 
H     6.1689253    1.8188229    0.3586686 
H     5.7800480   -0.1824769   -1.0684752 
H     6.4508402    1.1236762   -2.0630576 
H    -1.9794935   -2.3711682    2.2087665 
C    -4.7517654   -2.0385705    2.3494499 
C    -3.8216014   -2.0346687    1.1213049 
C    -2.3890082   -1.6128474    1.5112436 
C    -2.4077370   -0.2469731    2.2327152 
C    -3.3332215   -0.2620948    3.4594871 
C    -4.7591605   -0.6823751    3.0717787 
H    -4.4158305   -2.8254420    3.0533491 
H    -5.7734036   -2.3159899    2.0327990 
H    -4.2127321   -1.3344377    0.3626043 
H    -3.8281764   -3.0349737    0.6576484 
H    -1.3862587    0.0453304    2.5259943 
H    -2.7652109    0.5160876    1.5128896 
H    -2.9281799   -0.9688816    4.2103895 
H    -3.3343185    0.7360959    3.9339583 
H    -5.1949574    0.0861845    2.4020337 
H    -5.4076051   -0.7266128    3.9648469 
H    -2.7969194   -2.5565509   -1.3188381 
C    -2.3164479   -5.2656849   -1.6365899 
C    -1.6939794   -4.2915308   -0.6186475 
C    -1.7386299   -2.8418104   -1.1522194 
C    -1.0291241   -2.7341024   -2.5221128 
C    -1.6470877   -3.7194735   -3.5307054 
C    -1.6173960   -5.1631308   -3.0020463 
H    -3.3920438   -5.0275600   -1.7528168 
H    -2.2588354   -6.2976080   -1.2463072 
H    -0.6412307   -4.5845772   -0.4432154 
H    -2.2112093   -4.3716691    0.3543981 
H    -1.0949013   -1.6952049   -2.8935372 
H     0.0454923   -2.9605279   -2.4131986 
H    -2.6957664   -3.4257441   -3.7228615 
H    -1.1120348   -3.6480802   -4.4950789 
H    -0.5654918   -5.4966498   -2.8988506 
H    -2.0940935   -5.8453848   -3.7281712 
H     0.1069694   -3.2128737    1.3354006 
C     1.4761452   -2.5107831   -0.1959106 
H     2.4620728   -2.5685968    0.2884119 
H     1.2908586   -3.4542888   -0.7331034 
H     1.5062991   -1.6968027   -0.9372628 
