98
Energy =
C    -1.0825292   -1.9337207   -2.2320190 
C    -0.7397264   -0.7253602   -2.8843231 
C     0.6153758   -0.3258530   -3.0206573 
H    -1.5371064   -0.0440527   -3.2056822 
Pd    0.0229213   -0.4812584   -0.8264939 
P     1.6693629    1.0147276   -0.0057235 
P    -1.0660238   -1.1033734    1.1726785 
H    -0.3011493   -2.7051046   -2.1630357 
H     1.3691082   -1.1258541   -2.9966868 
C    -5.0776359   -3.4833133   -1.8064709 
C    -4.8807272   -2.0991933   -1.9494191 
C    -3.5898692   -1.5813811   -2.0951558 
C    -2.4619054   -2.4342149   -2.0939884 
C    -2.6788887   -3.8262999   -1.9678100 
C    -3.9716079   -4.3458294   -1.8256591 
H    -6.0889374   -3.8858406   -1.6902220 
H    -5.7399069   -1.4204203   -1.9468287 
H    -3.4569769   -0.5000073   -2.2007385 
H    -1.8207830   -4.5066169   -1.9883822 
H    -4.1152594   -5.4270794   -1.7319588 
C     1.9296317    3.2743777   -4.9794768 
C     0.6365236    3.2105534   -4.4327123 
C     0.1966671    2.0473522   -3.7935166 
C     1.0377595    0.9136111   -3.6963030 
C     2.3307214    0.9876891   -4.2642990 
C     2.7741493    2.1572271   -4.8948071 
H     2.2738832    4.1892608   -5.4720966 
H    -0.0276740    4.0787172   -4.4955798 
H    -0.7980270    2.0304707   -3.3355620 
H     2.9905113    0.1142606   -4.2172773 
H     3.7788938    2.1937336   -5.3282101 
Fe    1.0386483    0.4457522    3.2988553 
C    -0.0644345   -1.1052719    2.6920484 
C    -0.4490782   -0.7133952    4.0346953 
H    -1.4338405   -0.3681456    4.3534409 
C     0.7040245   -0.8226167    4.8794701 
H     0.7414868   -0.5660619    5.9396456 
C     1.8018341   -1.2886866    4.0853343 
H     2.8232672   -1.4494458    4.4343456 
C     1.3364529   -1.4700582    2.7427476 
C     1.5409343    1.5769672    1.7244731 
C     2.5745223    1.6443325    2.7396559 
H     3.6178246    1.3477970    2.6240747 
C     1.9872967    2.1479117    3.9464989 
H     2.5054692    2.2818109    4.8976409 
C     0.6008368    2.4080696    3.6970635 
H    -0.1246110    2.7777886    4.4236372 
C     0.3204597    2.0634952    2.3347344 
H     1.9359706   -1.7954439    1.8931279 
H    -0.6449860    2.1537836    1.8375265 
C     2.0129134    2.6234483   -0.9080054 
C     3.4532258    2.9479554   -0.4674324 
C     4.2711316    1.6555844   -0.6278010 
C     3.4618452    0.4141257   -0.1314029 
H     2.0467396    2.3095248   -1.9654262 
H     3.8760304    3.7648608   -1.0799365 
H     3.4639571    3.2908276    0.5827504 
H     4.4884320    1.5096332   -1.7019076 
H     5.2425944    1.7154212   -0.1077028 
H     3.7508399    0.1374272    0.8976246 
C    -2.0200306   -2.7186246    1.3437951 
C    -3.1878810   -2.3317537    2.2742411 
C    -3.7347946   -0.9798489    1.7930595 
C    -2.5500630   -0.0010716    1.5724037 
H    -2.4276123   -2.9267537    0.3391345 
H    -3.9672661   -3.1147937    2.2590126 
H    -2.8247522   -2.2583877    3.3172920 
H    -4.2580447   -1.1269310    0.8298593 
H    -4.4662201   -0.5567046    2.5028816 
H    -2.2880069    0.4931783    2.5257192 
C    -2.8188763    1.0864144    0.5141185 
H    -1.8880962    1.6511184    0.3167604 
H    -3.0747361    0.5945235   -0.4413801 
C    -3.9360842    2.0567107    0.9200492 
H    -3.6936485    2.5641225    1.8716940 
H    -4.0817178    2.8339436    0.1502098 
H    -4.8985512    1.5333581    1.0547441 
C    -1.1867203   -3.9182878    1.8179387 
H    -0.7691381   -3.6978069    2.8184539 
H    -1.8796222   -4.7705416    1.9549229 
C    -0.0608839   -4.3245920    0.8600875 
H    -0.4608088   -4.6180208   -0.1254838 
H     0.6463354   -3.4924550    0.6954637 
H     0.5130715   -5.1774806    1.2596719 
C     0.9456855    3.7377742   -0.7734180 
H    -0.0540381    3.2690601   -0.6840477 
H     0.9246899    4.2838379   -1.7337739 
C     1.1575608    4.7514991    0.3603690 
H     2.0824956    5.3334932    0.2063221 
H     0.3183184    5.4677871    0.3872283 
H     1.2226700    4.2719042    1.3505149 
C     3.6974189   -0.8033406   -1.0466625 
H     4.7936012   -0.9281035   -1.1379037 
H     3.3426572   -0.5530113   -2.0625247 
C     3.0776397   -2.1231327   -0.5860226 
H     3.2835072   -2.9325835   -1.3071635 
H     3.4763535   -2.4386553    0.3945799 
H     1.9750259   -2.0304435   -0.4935054 
