132
Energy =
C     1.4809958   -1.3435171   -2.9450826 
C     2.0512208   -0.0740143   -2.6560728 
C     2.9480581    0.0819230   -1.5711811 
H     1.7279142    0.8163069   -3.2094947 
Pd    0.8842166   -0.5663965   -0.8671119 
P     0.5578873    0.7525107    1.0318358 
P    -1.0294769   -1.8908842   -0.3047805 
H     2.0501084   -2.2247134   -2.6175752 
H     3.4485380   -0.8339401   -1.2203882 
C    -1.3613739   -2.1528861   -6.0818773 
C    -1.0286727   -0.8242454   -5.7694926 
C    -0.1020766   -0.5444441   -4.7602897 
C     0.5233418   -1.5881951   -4.0373946 
C     0.2047279   -2.9193578   -4.3910424 
C    -0.7327838   -3.2007972   -5.3916865 
H    -2.0930592   -2.3683197   -6.8671100 
H    -1.5005795    0.0002630   -6.3140301 
H     0.1202860    0.5003918   -4.5220065 
H     0.7067580   -3.7420916   -3.8721486 
H    -0.9651822   -4.2416000   -5.6411098 
C     5.1048096    3.6824532   -0.6573697 
C     5.7025250    2.4258318   -0.4869715 
C     4.9740283    1.2607204   -0.7547726 
C     3.6445333    1.3310722   -1.2303075 
C     3.0557320    2.6050696   -1.3987239 
C     3.7779491    3.7659247   -1.1129289 
H     5.6586812    4.5948232   -0.4159106 
H     6.7354388    2.3522817   -0.1323478 
H     5.4458035    0.2801803   -0.6211095 
H     2.0122978    2.6797725   -1.7244112 
H     3.3010191    4.7444856   -1.2269718 
Fe    1.7714766   -1.8246173    2.8544677 
C     0.4427853   -0.3235864    2.4811797 
C    -0.2141380   -1.6225162    2.5002687 
C     0.0250072   -2.1824632    3.8100111 
C     0.8188944   -1.2702748    4.5752416 
C     1.0842402   -0.1251509    3.7621916 
C     2.6535083   -2.7569785    1.2552622 
C     3.4997104   -1.7045154    1.7341547 
C     3.8077707   -1.9691640    3.1081313 
C     3.1518823   -3.1891102    3.4811090 
C     2.4376815   -3.6780723    2.3345923 
C    -1.0732411    1.5735044    0.8752695 
C    -2.0698245    1.4310126    1.8556301 
C    -3.3446397    1.9979190    1.6783719 
C    -3.5772515    2.7694486    0.5155523 
C    -2.5742844    2.9715861   -0.4642173 
C    -1.3383612    2.3320811   -0.2821324 
C     1.6767450    2.1149527    1.5419495 
C     2.9752864    1.8104217    1.9923575 
C     3.8734809    2.8141608    2.3806052 
C     3.4548312    4.1598163    2.2686286 
C     2.1641622    4.5001253    1.8062489 
C     1.2835296    3.4652366    1.4550379 
C    -1.1866953   -2.2905971    1.5461648 
H    -0.3258850   -3.1614023    4.1447379 
H     1.1890961   -1.4348373    5.5887374 
H     1.6709350    0.7484562    4.0468359 
H     2.2435853   -2.8310859    0.2482398 
H     3.8495093   -0.8561208    1.1455269 
H     4.4163657   -1.3418268    3.7622026 
H     3.1720118   -3.6525434    4.4691950 
H     1.8272295   -4.5827096    2.3009414 
H    -1.8630703    0.8500722    2.7609422 
H    -0.5687921    2.4274442   -1.0583006 
H     3.2870182    0.7667366    2.0566772 
H     0.2810953    3.7284259    1.1052530 
H    -0.9199263   -3.3626646    1.5721721 
H    -1.2784953   -3.4089649   -2.1410472 
H    -2.6750079   -0.1406964   -0.2310607 
C    -5.0391903   -0.8062684   -1.5028895 
C    -3.9253739   -1.7417825   -0.9921339 
C    -2.5741399   -0.9943799   -0.9269525 
C    -2.2363694   -0.4411489   -2.3309264 
C    -3.3604740    0.4348441   -2.9050290 
C    -4.7144699   -0.2859529   -2.9099187 
H    -5.1502247    0.0492096   -0.8071841 
H    -6.0010728   -1.3498106   -1.4985818 
H    -3.8380993   -2.5893637   -1.6970032 
H    -4.2108751   -2.1561566   -0.0140669 
H    -1.2938226    0.1361954   -2.2836060 
H    -2.0500132   -1.2888183   -3.0167674 
H    -3.4471924    1.3449314   -2.2875205 
H    -3.0811643    0.7579684   -3.9242294 
H    -4.6805628   -1.1384753   -3.6168697 
H    -5.5094934    0.3931577   -3.2664764 
C    -2.1431291   -5.9160803   -1.2720986 
C    -2.1586067   -4.5697694   -0.5221462 
C    -1.0705090   -3.6137763   -1.0722668 
C     0.3079657   -4.3018672   -0.9667687 
C     0.3358952   -5.6677121   -1.6778111 
C    -0.7723407   -6.5989428   -1.1654024 
H    -2.3900443   -5.7410958   -2.3377910 
H    -2.9362563   -6.5693041   -0.8663161 
H    -1.9635153   -4.7673565    0.5499258 
H    -3.1594652   -4.1209711   -0.5856232 
H     1.0893881   -3.6417970   -1.3797142 
H     0.5514692   -4.4519636    0.1030558 
H     0.1998783   -5.5138411   -2.7657129 
H     1.3302805   -6.1307150   -1.5454608 
H    -0.5754554   -6.8567508   -0.1057380 
H    -0.7659568   -7.5491748   -1.7282498 
C    -2.6287628   -2.1623361    2.0938967 
H    -3.0302755   -1.1467054    1.9507327 
H    -3.3052357   -2.8802197    1.6056826 
H    -2.6295388   -2.3777684    3.1757405 
C    -4.4483063    1.7841279    2.6873207 
H    -4.2630562    0.8814695    3.2921557 
H    -4.5255428    2.6389582    3.3848807 
H    -5.4222210    1.6874212    2.1798379 
C    -2.8472423    3.8405278   -1.6698424 
H    -3.8957711    3.7424260   -1.9945752 
H    -2.6766538    4.9069695   -1.4297836 
H    -2.1821708    3.5790566   -2.5089279 
O    -4.8399614    3.2685593    0.2841309 
C    -5.1180186    4.5707368    0.8210190 
H    -6.1605728    4.7983160    0.5540290 
H    -5.0081140    4.5845932    1.9215650 
H    -4.4497827    5.3354017    0.3819892 
C     5.2606449    2.4728445    2.8681011 
H     5.9853457    3.2349665    2.5382792 
H     5.2994397    2.4337207    3.9732213 
H     5.5795187    1.4886875    2.4879452 
C     1.7779014    5.9529420    1.6600526 
H     0.8076295    6.0564959    1.1480091 
H     1.6983553    6.4530642    2.6424304 
H     2.5469820    6.5005281    1.0878881 
O     4.3495699    5.1776666    2.5201987 
C     4.4699210    5.5972102    3.8868416 
H     5.1917740    6.4274562    3.8930202 
H     3.4992375    5.9495317    4.2842046 
H     4.8459554    4.7802099    4.5309652 
