112
Energy =
C     2.6163930   -1.6139920   -1.7564478 
C     2.5713239   -0.3040559   -2.3039070 
C     2.8442211    0.8381569   -1.5090235 
H     2.1917062   -0.1672175   -3.3236283 
Pd    1.0780203   -0.3574090   -0.6788251 
P    -0.2032289    1.2671398    0.4264936 
P    -0.1662594   -2.1912909    0.0202346 
H     3.2603444   -1.7637540   -0.8780534 
H     3.4451952    0.6757329   -0.6014960 
C     1.8538728   -5.2474352   -3.9367037 
C     2.5319683   -5.2757037   -2.7084919 
C     2.7572464   -4.0877045   -2.0021721 
C     2.3054384   -2.8456908   -2.5064456 
C     1.5964596   -2.8382184   -3.7303841 
C     1.3850111   -4.0233337   -4.4413394 
H     1.6873766   -6.1735518   -4.4965724 
H     2.8973653   -6.2246201   -2.3023784 
H     3.2981687   -4.1161200   -1.0503261 
H     1.1969868   -1.9001013   -4.1288029 
H     0.8389638   -3.9943340   -5.3896445 
C     2.9473378    4.9174831   -2.8929492 
C     3.4993913    4.5641364   -1.6524536 
C     3.4583841    3.2335633   -1.2195565 
C     2.8486839    2.2262216   -2.0047034 
C     2.2991402    2.5994128   -3.2536147 
C     2.3580102    3.9256538   -3.6944695 
H     2.9859351    5.9550473   -3.2396592 
H     3.9771291    5.3247801   -1.0262825 
H     3.9172675    2.9616937   -0.2633191 
H     1.8207311    1.8492208   -3.8911651 
H     1.9388994    4.1893962   -4.6709210 
Fe   -3.2976143    0.6265927    2.2271915 
C    -1.9168410    0.6878908    0.7206488 
C    -2.3045745   -0.6871166    1.0379329 
C    -3.7277725   -0.7978581    0.8419070 
C    -4.2348966    0.4730544    0.4273896 
C    -3.1383209    1.3894589    0.3632512 
C    -4.2391825   -0.0583792    3.8982279 
C    -2.8667755    0.2416987    4.1930585 
C    -2.6466315    1.6303893    3.8981593 
C    -3.8764124    2.1873755    3.4159040 
C    -4.8629911    1.1439057    3.4187014 
C    -1.3977835   -1.8279244    1.4168144 
H    -4.3268001   -1.6933885    1.0075189 
H    -5.2813156    0.7154974    0.2346630 
H    -3.2210282    2.4404677    0.0925882 
H    -4.7237081   -1.0304378    4.0076048 
H    -2.1274352   -0.4598680    4.5847285 
H    -1.7094580    2.1727974    4.0249807 
H    -4.0329134    3.2192770    3.0966415 
H    -5.9003253    1.2407412    3.0932143 
H    -0.7092129   -1.4981179    2.2121750 
C    -2.1592225   -3.0709925    1.8965576 
H    -2.8668363   -2.7766136    2.6913598 
H    -2.7319790   -3.5370748    1.0764501 
H    -1.4715930   -3.8217810    2.3150910 
H     0.7174506    3.0636302   -0.8079448 
C    -1.0160443    5.2843675   -0.7472076 
C    -0.9234682    4.0546492    0.1752919 
C    -0.3425782    2.8362401   -0.5803545 
C    -1.0352819    2.5484180   -1.9354793 
C    -1.1643363    3.8179301   -2.7956520 
C    -1.8185496    4.9706686   -2.0191620 
H     0.0068120    5.6007386   -1.0310830 
H    -1.4693889    6.1257665   -0.1929969 
H    -1.9256015    3.8255954    0.5800447 
H    -0.2875681    4.2926304    1.0461999 
H    -0.4552915    1.7739090   -2.4726010 
H    -2.0403480    2.1219149   -1.7697545 
H    -0.1582616    4.1363902   -3.1222810 
H    -1.7398643    3.5832351   -3.7092617 
H    -2.8570664    4.6971835   -1.7431870 
H    -1.8892563    5.8684044   -2.6587262 
H    -0.1887363    2.5348078    2.4741890 
C     2.5058241    2.8793168    3.2311288 
C     1.9039239    2.4541679    1.8791615 
C     0.5239846    1.7932917    2.0656252 
C     0.6167458    0.6068940    3.0433260 
C     1.2223205    1.0303937    4.3927014 
C     2.5958569    1.6946503    4.2063213 
H     1.8740017    3.6740646    3.6737749 
H     3.5036726    3.3249309    3.0679368 
H     2.5764372    1.7221113    1.3910745 
H     1.8380719    3.3246373    1.2039559 
H    -0.3891894    0.1791827    3.1873662 
H     1.2490814   -0.1816507    2.5872543 
H     0.5362088    1.7421653    4.8927220 
H     1.3001977    0.1509146    5.0568951 
H     3.3102165    0.9471722    3.8067955 
H     2.9980631    2.0270943    5.1795857 
C    -2.6872168   -3.6640601   -3.5958238 
C    -2.8852807   -2.3952982   -3.0272183 
C    -2.1162859   -1.9864246   -1.9318979 
C    -1.1473482   -2.8561269   -1.3742832 
C    -0.9251822   -4.1093822   -1.9774225 
C    -1.6991164   -4.5099675   -3.0762728 
H    -3.2901862   -3.9825336   -4.4524736 
H    -3.6371874   -1.7160852   -3.4423087 
H    -2.2620548   -0.9846747   -1.5164457 
H    -0.1258169   -4.7647503   -1.6240887 
H    -1.5098638   -5.4857250   -3.5349045 
C     2.5726018   -5.3540594    2.0625142 
C     1.3632494   -5.7797442    1.4927882 
C     0.5128918   -4.8598884    0.8631340 
C     0.8789361   -3.4997084    0.7732773 
C     2.0864147   -3.0786850    1.3713781 
C     2.9269218   -3.9973492    2.0133775 
H     3.2330954   -6.0770879    2.5520089 
H     1.0743439   -6.8346534    1.5427606 
H    -0.4360632   -5.2082581    0.4470235 
H     2.3680411   -2.0196361    1.3237643 
H     3.8612091   -3.6544190    2.4697020 
