112
Energy =
C     0.3046743    1.4912401   -2.9712257 
C     0.8321247    2.5192883   -2.1240437 
C     2.0544872    2.3542911   -1.4399396 
H     0.2024402    3.3870885   -1.8900513 
Pd    0.5311198    0.7301040   -0.8820407 
P     0.7945277    0.7664928    1.4366259 
P    -0.5794381   -1.3251660   -0.9766686 
H     1.0309735    0.8815026   -3.5275905 
H     2.7211497    1.5506470   -1.7913230 
C    -3.5952636    1.8539673   -4.7832171 
C    -3.3668242    2.3673887   -3.4958867 
C    -2.1072120    2.2426304   -2.8997248 
C    -1.0390451    1.6136815   -3.5818837 
C    -1.2810707    1.1171898   -4.8825514 
C    -2.5456985    1.2300476   -5.4740647 
H    -4.5829756    1.9459832   -5.2462180 
H    -4.1773128    2.8635751   -2.9518917 
H    -1.9514665    2.6233040   -1.8837511 
H    -0.4626931    0.6510782   -5.4425566 
H    -2.7087375    0.8395985   -6.4840368 
C     4.0715536    5.2085091    1.0637271 
C     4.5835143    3.9115456    0.8955404 
C     3.9122198    2.9949324    0.0797744 
C     2.7026960    3.3446243   -0.5671599 
C     2.1953911    4.6511496   -0.3801874 
C     2.8800597    5.5741992    0.4170209 
H     4.6037218    5.9340089    1.6876511 
H     5.5143940    3.6174828    1.3911484 
H     4.3242624    1.9904004   -0.0590662 
H     1.2674762    4.9575630   -0.8721167 
H     2.4787127    6.5854436    0.5379342 
Fe   -0.1901057   -1.7959775    3.7262491 
C    -0.3567148   -0.3541549    2.3022318 
C    -0.7716343   -1.6512647    1.7890557 
C    -1.8609885   -2.1120367    2.6102608 
C    -2.1124680   -1.1304432    3.6262563 
C    -1.1843385   -0.0528783    3.4520191 
C     0.9916163   -3.4607171    3.9477967 
C     1.7723470   -2.2680151    4.0896224 
C     1.2197161   -1.5030333    5.1736833 
C     0.0970451   -2.2265476    5.6989027 
C    -0.0475997   -3.4346731    4.9375702 
C     0.2760801    2.4278966    2.0155844 
C     1.1800525    3.4139923    2.4542236 
C     0.7079292    4.6797943    2.8355585 
C    -0.6563976    4.9840295    2.7563432 
C    -1.5592377    4.0163607    2.2834753 
C    -1.0991636    2.7480687    1.9144553 
C     2.4847628    0.4321616    2.0553210 
C     3.3525084   -0.2974605    1.2180502 
C     4.6382749   -0.6430996    1.6590830 
C     5.0705225   -0.2456662    2.9336491 
C     4.2106509    0.4842791    3.7710236 
C     2.9188578    0.8141884    3.3407329 
C    -0.1838912   -2.3344799    0.5838781 
H    -2.3850886   -3.0627917    2.5030037 
H    -2.8545877   -1.2108531    4.4225967 
H    -1.1144312    0.8462099    4.0657386 
H     1.1607356   -4.2508661    3.2142732 
H     2.6308730   -1.9892141    3.4774365 
H     1.5847498   -0.5416950    5.5358092 
H    -0.5506639   -1.9025677    6.5155935 
H    -0.8236078   -4.1901856    5.0742474 
H     2.2541342    3.2110736    2.4879086 
H    -1.8098122    1.9947318    1.5597584 
H     3.0142571   -0.5888162    0.2155342 
H     2.2453161    1.3611674    4.0076197 
H     0.9144478   -2.2171723    0.6466437 
C    -0.5013420   -3.8385233    0.5188415 
H    -0.2741254   -4.2893485    1.4990921 
H    -1.5595192   -4.0378678    0.2930504 
H     0.1142624   -4.3501847   -0.2377151 
H     1.4224561    5.4323681    3.1834673 
H    -2.6267965    4.2484636    2.2089360 
H     5.3048317   -1.2152886    1.0054776 
H     4.5452591    0.7882718    4.7682186 
H    -1.0182129    5.9732808    3.0549722 
H     6.0764303   -0.5074497    3.2774805 
H    -0.4104216   -3.4616552   -2.1055798 
C     2.0982431   -3.5084276   -3.3791319 
C     1.5592403   -2.5643568   -2.2892346 
C     0.0156978   -2.4663250   -2.3358175 
C    -0.4667089   -2.0527194   -3.7384984 
C     0.0750618   -3.0066935   -4.8182445 
C     1.6089850   -3.0918012   -4.7751970 
H     1.7576346   -4.5400982   -3.1629736 
H     3.2023534   -3.5263062   -3.3417103 
H     1.9781467   -1.5472434   -2.4349136 
H     1.9002844   -2.9053339   -1.2942394 
H    -1.5692097   -2.0206467   -3.7825503 
H    -0.1146122   -1.0296465   -3.9462852 
H    -0.3546862   -4.0158369   -4.6632078 
H    -0.2676064   -2.6678874   -5.8124714 
H     2.0369303   -2.1016464   -5.0311748 
H     1.9772702   -3.8008214   -5.5376043 
H    -2.4632662   -0.6840766   -2.2180079 
C    -4.4774145    0.2188863   -0.5663484 
C    -3.0029533   -0.0679065   -0.2325919 
C    -2.4186166   -1.1239497   -1.1993896 
C    -3.2584412   -2.4182296   -1.1847770 
C    -4.7275866   -2.1114415   -1.5316761 
C    -5.3183875   -1.0682196   -0.5690007 
H    -4.5323529    0.6920932   -1.5649001 
H    -4.8857945    0.9475830    0.1574361 
H    -2.9213892   -0.4279499    0.8086474 
H    -2.4039301    0.8584054   -0.3026036 
H    -2.8460266   -3.1655957   -1.8865866 
H    -3.2168641   -2.8614932   -0.1725555 
H    -4.7820389   -1.7294808   -2.5700338 
H    -5.3181374   -3.0447610   -1.5040558 
H    -5.3448328   -1.4915812    0.4547437 
H    -6.3637213   -0.8416947   -0.8447032 
