110
Energy =
C     0.4346840   -0.1108179   -3.0130609 
C    -0.9924374   -0.0587413   -2.9236765 
C    -1.6504263    1.0743310   -2.4091538 
H    -1.5687629   -0.9575303   -3.1791655 
Pd   -0.1770437    0.0529090   -0.8712655 
P    -1.5177168    0.1827635    1.0770608 
P     1.9685173   -0.2617798    0.0588476 
H     0.9544093    0.8430893   -3.1836981 
H    -1.0496290    1.9899815   -2.2986399 
C     2.3410442   -3.5653780   -4.7377197 
C     1.3498884   -3.7315780   -3.7554400 
C     0.7401386   -2.6142337   -3.1748477 
C     1.1120999   -1.3066187   -3.5631368 
C     2.1278773   -1.1531643   -4.5332779 
C     2.7294321   -2.2731546   -5.1220985 
H     2.8156591   -4.4403900   -5.1930581 
H     1.0552878   -4.7379169   -3.4399201 
H    -0.0190210   -2.7466306   -2.3955230 
H     2.4324952   -0.1459579   -4.8393069 
H     3.5066396   -2.1365237   -5.8809174 
C    -5.8808402    1.8241605   -2.2215931 
C    -4.9575102    2.8054565   -1.8297719 
C    -3.5845036    2.5441791   -1.9062718 
C    -3.1017862    1.2920250   -2.3588918 
C    -4.0475567    0.3255307   -2.7798421 
C    -5.4187800    0.5890829   -2.7083259 
H    -6.9554046    2.0251554   -2.1659127 
H    -5.3069799    3.7796621   -1.4731304 
H    -2.8682312    3.3228318   -1.6218928 
H    -3.7126542   -0.6355911   -3.1811341 
H    -6.1335442   -0.1706921   -3.0403424 
Fe    0.8631364   -1.3767138    3.0619681 
C     2.0664177   -1.4234440    1.4515479 
C     1.3049931   -2.6503972    1.5392276 
H     0.6197243   -3.0253345    0.7800329 
C     1.6010989   -3.2759512    2.7921445 
H     1.1598856   -4.2021201    3.1641789 
C     2.5486554   -2.4562214    3.4878275 
H     2.9508552   -2.6438436    4.4850779 
C     2.8402608   -1.3143673    2.6722441 
C    -0.7979718   -0.2596236    2.6967760 
C     0.2214147    0.5030254    3.3894613 
H     0.6909461    1.4195615    3.0324599 
C     0.4952276   -0.1405397    4.6412049 
H     1.2287255    0.1876353    5.3797731 
C    -0.3248244   -1.3118612    4.7292691 
H    -0.3239478   -2.0374702    5.5445427 
C    -1.1163141   -1.3948971    3.5378343 
H     3.5089000   -0.4966841    2.9466316 
H    -1.8207749   -2.1942034    3.3047674 
C    -3.1052149   -0.8664496    0.9794422 
C    -4.2573384    0.1700805    0.9947022 
C    -3.8322423    1.3642715    1.8540287 
C    -2.4444556    1.8014734    1.3489784 
H    -3.1381883   -1.4282485    1.9301088 
H    -4.4624818    0.5084398   -0.0361174 
H    -5.1818684   -0.2950934    1.3765526 
H    -4.5565060    2.1956071    1.7801477 
H    -3.7784566    1.0660274    2.9168864 
H    -2.5765538    2.1320457    0.3031041 
C     2.6825287    1.3595776    0.7214073 
C     4.1197571    1.4229608    0.1413303 
C     4.1657181    0.6811189   -1.2110201 
C     3.4091682   -0.6674358   -1.0960794 
H     2.7186980    1.2231109    1.8153495 
H     4.4542812    2.4702900    0.0337110 
H     4.8162939    0.9434746    0.8484145 
H     3.6858612    1.2989926   -1.9903674 
H     5.2061070    0.5175036   -1.5436203 
H     2.9306991   -0.8976597   -2.0596038 
C     4.2680328   -1.9208737   -0.7387106 
H     3.5702499   -2.6929277   -0.3616970 
C     1.7831904    2.6031090    0.4637587 
H     0.7471573    2.2809882    0.6915702 
C    -3.1558461   -1.8767742   -0.1886411 
C    -1.7296606    2.9482608    2.1198546 
H    -0.6400444    2.8110005    1.9984723 
H    -2.9965243   -1.3004897   -1.1185899 
C     4.9089732   -2.4723336   -2.0274861 
H     5.5084013   -3.3729237   -1.8074843 
H     4.1422925   -2.7411439   -2.7723680 
H     5.5845233   -1.7268376   -2.4866464 
C     5.3486339   -1.6990095    0.3323084 
H     5.8672062   -2.6506422    0.5404672 
H     6.1134614   -0.9788061   -0.0095739 
H     4.9327150   -1.3375331    1.2849541 
C     1.7826804    3.1032302   -0.9889478 
H     2.7676383    3.5044066   -1.2856988 
H     1.5144275    2.2951633   -1.6914501 
H     1.0437482    3.9143060   -1.1119636 
C     2.1415036    3.7409659    1.4357116 
H     1.4635015    4.6009629    1.2960819 
H     2.0611442    3.4129507    2.4879971 
H     3.1743953    4.0987652    1.2741021 
C    -2.0361720    2.9637499    3.6274842 
H    -1.3996012    3.7093970    4.1346666 
H    -3.0878837    3.2424202    3.8159019 
H    -1.8521368    1.9849609    4.1005427 
C    -2.0752082    4.3051399    1.4765531 
H    -1.7273969    4.3490470    0.4284731 
H    -3.1661146    4.4826231    1.4822287 
H    -1.5969950    5.1350027    2.0256652 
C    -4.5348177   -2.5538971   -0.2837958 
H    -4.5410808   -3.2983452   -1.0991041 
H    -4.7833263   -3.0821170    0.6552869 
H    -5.3363844   -1.8250903   -0.4906060 
C    -2.0348914   -2.9193011   -0.0893540 
H    -2.0732436   -3.6264847   -0.9362258 
H    -1.0490926   -2.4176566   -0.1091071 
H    -2.1050144   -3.5043600    0.8461518 
