132
Energy =
C     0.6221424   -0.5372309   -3.4842920 
C     0.6226673    0.8512571   -3.1407768 
C     1.5796926    1.3937580   -2.2545943 
H    -0.2215073    1.4713597   -3.4705256 
Pd    0.3459746   -0.2743079   -1.2758914 
P     0.1172153    0.7927642    0.7994751 
P    -0.4158848   -2.3685633   -0.5382600 
H     1.5976507   -1.0424157   -3.5379536 
H     2.4933789    0.8036848   -2.0833096 
C    -2.4639366   -2.2260884   -5.9793343 
C    -2.8053903   -1.3452611   -4.9397242 
C    -1.8068696   -0.7912331   -4.1304453 
C    -0.4450557   -1.1058286   -4.3411324 
C    -0.1161841   -1.9867937   -5.3951345 
C    -1.1154600   -2.5408651   -6.2059100 
H    -3.2452384   -2.6638658   -6.6089447 
H    -3.8557120   -1.0964244   -4.7538593 
H    -2.0832475   -0.1302133   -3.3002630 
H     0.9347375   -2.2394381   -5.5765076 
H    -0.8398245   -3.2210226   -7.0186205 
C     1.9287977    5.4672737   -0.9234883 
C     2.9029017    4.5149930   -0.5913244 
C     2.7723915    3.1931827   -1.0322634 
C     1.6695629    2.7963448   -1.8232760 
C     0.7073432    3.7748114   -2.1686816 
C     0.8324794    5.0908898   -1.7177766 
H     2.0275824    6.5011302   -0.5765637 
H     3.7645218    4.8005949    0.0201958 
H     3.5263214    2.4489461   -0.7531589 
H    -0.1459742    3.5075217   -2.7978889 
H     0.0734188    5.8308726   -1.9912981 
Fe   -0.5354081   -0.7952319    3.9246293 
C    -0.8376309   -0.1675239    2.0277589 
C    -0.8626694   -1.6210771    2.1059751 
C    -1.9138000   -1.9870715    3.0206824 
C    -2.5325574   -0.7890724    3.5072223 
C    -1.8784947    0.3318848    2.9030756 
C     0.3638556   -1.9840216    5.3125096 
C     1.3494282   -1.3008129    4.5212425 
C     1.1425708    0.1115517    4.6787979 
C     0.0265331    0.3019932    5.5583524 
C    -0.4566835   -0.9923111    5.9508271 
C    -0.8716754    2.3242727    0.6404641 
C    -1.6325225    2.4803881   -0.5315256 
C    -2.4649065    3.5927738   -0.7310737 
C    -2.5115932    4.5719888    0.2850573 
C    -1.7951695    4.4259162    1.4973916 
C    -0.9871993    3.2901120    1.6622093 
C     1.7700327    1.1791398    1.4982616 
C     2.1633768    2.4338869    1.9963305 
C     3.4470920    2.6321052    2.5341988 
C     4.3484616    1.5438297    2.5520128 
C     3.9888656    0.2728552    2.0435222 
C     2.7007430    0.1213711    1.5076883 
C     0.0001309   -2.5607419    1.3083861 
H    -2.1736805   -3.0024771    3.3229764 
H    -3.3406744   -0.7380613    4.2389311 
H    -2.1299658    1.3800287    3.0626226 
H     0.2474709   -3.0654179    5.4073633 
H     2.1216568   -1.7681517    3.9070179 
H     1.7224063    0.8983992    4.1954349 
H    -0.3943815    1.2620080    5.8626962 
H    -1.3086406   -1.1891624    6.6041379 
H    -1.5697090    1.7120549   -1.3123848 
H    -0.4628761    3.1566698    2.6139377 
H     1.4828286    3.2864825    1.9528874 
H     2.4199229   -0.8535339    1.0911776 
H     1.0344289   -2.1764065    1.3435297 
H     0.1625115   -4.7213131   -0.6161518 
H    -2.2740721   -2.6451939   -1.9317816 
C    -4.4987962   -1.4039982   -0.9490500 
C    -3.0439537   -1.2785702   -0.4652952 
C    -2.2471300   -2.5532582   -0.8258626 
C    -2.9075303   -3.8071199   -0.2148487 
C    -4.3679957   -3.9274915   -0.6916123 
C    -5.1730040   -2.6578706   -0.3665075 
H    -4.5098530   -1.4609099   -2.0559953 
H    -5.0628477   -0.4957889   -0.6696375 
H    -3.0308724   -1.1241060    0.6277865 
H    -2.5583186   -0.3927908   -0.9144471 
H    -2.3438756   -4.7204872   -0.4781020 
H    -2.8911790   -3.7180485    0.8873245 
H    -4.3752518   -4.0990089   -1.7862203 
H    -4.8385863   -4.8135118   -0.2288549 
H    -5.2499328   -2.5481760    0.7333879 
H    -6.2053368   -2.7522777   -0.7481142 
C     2.6664639   -4.8637309   -1.9302388 
C     1.9306963   -3.6676061   -1.3012379 
C     0.3979051   -3.8773814   -1.2919799 
C    -0.1417350   -4.2270434   -2.6924466 
C     0.6190468   -5.4133395   -3.3115012 
C     2.1347329   -5.1627068   -3.3407014 
H     2.5264586   -5.7559483   -1.2887427 
H     3.7520949   -4.6595753   -1.9556057 
H     2.1563613   -2.7486826   -1.8778194 
H     2.3025402   -3.4904249   -0.2740597 
H    -1.2181906   -4.4662348   -2.6407707 
H    -0.0478552   -3.3497482   -3.3517752 
H     0.4121555   -6.3298739   -2.7245027 
H     0.2353183   -5.5971396   -4.3311281 
H     2.3506361   -4.2999872   -4.0028390 
H     2.6608578   -6.0322905   -3.7728830 
C     0.0155012   -3.9905615    1.8743139 
H     0.2338032   -3.9339655    2.9547147 
H    -0.9488023   -4.5067340    1.7472453 
H     0.8001853   -4.6050558    1.4054513 
C    -3.2767453    3.7476987   -1.9948191 
H    -4.2237218    4.2720157   -1.7877957 
H    -2.7299499    4.3419252   -2.7522418 
H    -3.4994656    2.7657927   -2.4448209 
C    -1.9285234    5.4700707    2.5802511 
H    -1.3883294    6.3960847    2.3086722 
H    -2.9857944    5.7482426    2.7249042 
H    -1.5148902    5.1082681    3.5355102 
O    -3.3385221    5.6642565    0.1440480 
C    -2.7835539    6.7817935   -0.5620864 
H    -3.5426284    7.5773284   -0.5303938 
H    -1.8537250    7.1385018   -0.0793140 
H    -2.5658506    6.5269452   -1.6169690 
C     3.8694979    3.9680834    3.0975093 
H     4.6711055    4.4260205    2.4895714 
H     3.0227265    4.6721690    3.1268384 
H     4.2759594    3.8489009    4.1162778 
C     4.9602716   -0.8827966    2.1004883 
H     5.5673927   -0.8299749    3.0192217 
H     4.4287142   -1.8487011    2.0758359 
H     5.6587745   -0.8684572    1.2429596 
O     5.5791888    1.7224070    3.1423371 
C     6.6671907    2.0291521    2.2592344 
H     7.5518202    2.1735306    2.8968776 
H     6.8592335    1.2039495    1.5476983 
H     6.4696130    2.9562748    1.6878982 
