112
Energy =
C     2.0103458   -0.0343551   -2.3845875 
C     2.1372837    1.2872882   -1.9015380 
C     2.7409226    1.5717166   -0.6407444 
H     1.6493337    2.1005237   -2.4546020 
Pd    0.9482298    0.2817071   -0.3550753 
P     0.7100328    0.6195217    1.9346423 
P    -1.1398177   -0.8555405   -0.4461049 
H     2.7010849   -0.7871153   -1.9738722 
H     3.5297599    0.8914333   -0.2889112 
C     0.4122430   -1.0332752   -6.2535847 
C    -0.1228267    0.0529868   -5.5403294 
C     0.3760851    0.3801546   -4.2752746 
C     1.4182655   -0.3759192   -3.6914834 
C     1.9363192   -1.4748956   -4.4140589 
C     1.4450093   -1.7942164   -5.6859678 
H     0.0232980   -1.2853136   -7.2453160 
H    -0.9323025    0.6485694   -5.9753682 
H    -0.0518838    1.2252594   -3.7271510 
H     2.7430016   -2.0739698   -3.9763901 
H     1.8672038   -2.6428430   -6.2337166 
C     2.9112096    5.5356970    1.0420755 
C     1.8573452    5.1872418    0.1800558 
C     1.7935064    3.9035293   -0.3714349 
C     2.7837120    2.9364204   -0.0748490 
C     3.8393934    3.3046437    0.7859410 
C     3.9024551    4.5899834    1.3386535 
H     2.9583682    6.5400180    1.4752745 
H     1.0806021    5.9209072   -0.0610069 
H     0.9560575    3.6440965   -1.0292251 
H     4.6169063    2.5727317    1.0254354 
H     4.7292955    4.8501247    2.0070978 
Fe    1.5075710   -2.7072390    2.1358095 
C     0.4618380   -1.0276474    2.6415707 
C    -0.4143891   -2.0544435    2.0940960 
C    -0.2789930   -3.2087463    2.9493881 
C     0.6675127   -2.9196176    3.9837174 
C     1.1336306   -1.5807276    3.7972669 
C     1.9435707   -4.3274718    0.9816564 
C     2.1292273   -3.1227774    0.2255533 
C     3.1121657   -2.3260928    0.8982874 
C     3.5320361   -3.0279696    2.0764039 
C     2.8112213   -4.2688256    2.1258629 
C    -0.7221564    1.6217365    2.4914968 
C    -0.8995387    2.9119853    1.9500505 
C    -1.9814102    3.7017924    2.3606176 
C    -2.9051387    3.2023372    3.2928934 
C    -2.7301701    1.9196919    3.8345193 
C    -1.6358305    1.1327032    3.4457336 
C     2.1227861    1.3172058    2.8869873 
C     2.0056185    2.4983159    3.6441680 
C     3.1098450    2.9885723    4.3571316 
C     4.3336082    2.3061564    4.3304210 
C     4.4555821    1.1275709    3.5772659 
C     3.3609097    0.6423510    2.8521092 
C    -1.4846761   -2.0031106    1.0202332 
H    -0.8020413   -4.1570510    2.8068123 
H     1.0032776   -3.6109512    4.7586036 
H     1.8685546   -1.0596258    4.4117842 
H     1.2544969   -5.1395165    0.7419500 
H     1.6171939   -2.8509781   -0.6944637 
H     3.4742945   -1.3551621    0.5575372 
H     4.2606321   -2.6812353    2.8114982 
H     2.8922676   -5.0256596    2.9081421 
H    -0.1847060    3.2971536    1.2152947 
H    -1.4908753    0.1393969    3.8828488 
H     1.0574371    3.0410054    3.6847959 
H     3.4481713   -0.2816412    2.2786360 
H    -1.4656838   -3.0004282    0.5439548 
C    -2.8780243   -1.8235568    1.6678705 
H    -2.9766769   -2.5208858    2.5172435 
H    -3.0197239   -0.8012694    2.0534583 
H    -3.6835559   -2.0464191    0.9512631 
H    -2.1075295    4.7077297    1.9469971 
H    -3.4423689    1.5324251    4.5705650 
H     3.0067871    3.9103651    4.9386505 
H     5.4066271    0.5851069    3.5515825 
H    -3.7568542    3.8163073    3.6032199 
H     5.1901901    2.6899264    4.8940337 
H    -1.6212913   -1.2070606   -2.7611200 
C    -3.2008354   -3.4616312   -3.1456954 
C    -2.9156720   -2.6993456   -1.8362808 
C    -1.5715959   -1.9338497   -1.9254144 
C    -0.4433436   -2.9390143   -2.2352518 
C    -0.7183486   -3.7078495   -3.5389968 
C    -2.0675124   -4.4392902   -3.4887175 
H    -3.3213063   -2.7302462   -3.9690586 
H    -4.1630616   -3.9966976   -3.0539554 
H    -2.8592647   -3.4312305   -1.0071152 
H    -3.7542798   -2.0265966   -1.6104767 
H     0.5198628   -2.4100379   -2.3074483 
H    -0.3633911   -3.6604921   -1.3973302 
H    -0.7173522   -2.9880331   -4.3784146 
H     0.1069454   -4.4169625   -3.7310260 
H    -2.0273010   -5.2351860   -2.7185682 
H    -2.2696340   -4.9413268   -4.4515421 
H    -2.2991901    0.9649492    0.5933540 
C    -4.6683655    1.6416724   -0.6225524 
C    -3.8568458    0.3397389   -0.7735000 
C    -2.3680394    0.5877562   -0.4447300 
C    -1.8225535    1.6930925   -1.3854327 
C    -2.6479741    2.9891353   -1.3089466 
C    -4.1412448    2.7365268   -1.5613488 
H    -4.6061276    1.9884938    0.4279073 
H    -5.7337878    1.4340713   -0.8278016 
H    -3.9458269   -0.0092564   -1.8193401 
H    -4.2896693   -0.4410447   -0.1305600 
H    -0.7630630    1.9011521   -1.1322508 
H    -1.8331054    1.3114914   -2.4248357 
H    -2.5214627    3.4288148   -0.3031060 
H    -2.2462689    3.7220550   -2.0325886 
H    -4.2907523    2.4172800   -2.6117983 
H    -4.7154906    3.6710247   -1.4301595 
