112
Energy =
C     2.7688332    2.2240709   -0.5061031 
C     1.7775443    2.6252686   -1.4378659 
C     0.5937643    3.2835945   -1.0163421 
H     1.8782680    2.3197100   -2.4879637 
Pd    0.7885725    1.2135191   -0.0664229 
P    -1.4367864    0.5261628    0.3051815 
P     1.7044653   -0.6397292    0.9897662 
H     2.8162924    2.7734986    0.4466262 
H     0.6442319    3.8310676   -0.0625939 
C     6.4572433    0.3127895   -1.6277759 
C     5.2726549   -0.0061127   -2.3141139 
C     4.0674000    0.6056007   -1.9568655 
C     4.0155358    1.5364738   -0.8942977 
C     5.2094583    1.8344586   -0.2028963 
C     6.4212756    1.2393928   -0.5760765 
H     7.4019421   -0.1619110   -1.9123614 
H     5.2895316   -0.7362791   -3.1298902 
H     3.1508470    0.3446363   -2.4948137 
H     5.1836062    2.5387971    0.6355627 
H     7.3379684    1.4907496   -0.0328289 
C    -2.4900729    4.7110945   -3.6636644 
C    -1.7773867    3.5447774   -3.9911741 
C    -0.7700011    3.0717833   -3.1442980 
C    -0.4563314    3.7486040   -1.9425718 
C    -1.1728665    4.9270930   -1.6343525 
C    -2.1768144    5.4053345   -2.4858920 
H    -3.2796998    5.0782188   -4.3270074 
H    -2.0103345    3.0014120   -4.9129774 
H    -0.2303948    2.1572786   -3.4090583 
H    -0.9268668    5.4770598   -0.7193809 
H    -2.7171412    6.3219097   -2.2275788 
Fe   -0.3799399   -3.1018973    2.4824571 
C     0.6695706   -1.3664640    2.3028252 
C    -0.7218656   -1.0889886    2.6400794 
C    -0.9832480   -1.7699968    3.8886559 
C     0.2025714   -2.4452211    4.3182589 
C     1.2196050   -2.2117270    3.3438769 
C     0.3319395   -4.8635835    1.7299531 
C    -0.5345779   -5.0973277    2.8503267 
C    -1.8216707   -4.5424435    2.5404135 
C    -1.7495594   -3.9709813    1.2271950 
C    -0.4186705   -4.1644469    0.7261433 
C     3.2257512   -0.2398545    1.9408974 
C     4.5106989   -0.6770699    1.5726934 
C     5.6195262   -0.3375634    2.3647138 
C     5.4598527    0.4592450    3.5048674 
C     4.1815754    0.9263594    3.8576157 
C     3.0699308    0.5770017    3.0836096 
C     2.1566281   -2.0008703   -0.1557679 
C     2.8511503   -3.1453304    0.2886291 
C     3.1410515   -4.1836384   -0.6054402 
C     2.7392353   -4.0950099   -1.9483764 
C     2.0506245   -2.9591924   -2.3974812 
C     1.7647105   -1.9161300   -1.5045053 
C    -1.7139180   -0.0916061    2.0629671 
H    -1.9351922   -1.7841958    4.4200791 
H     0.2996945   -3.0616259    5.2135934 
H     2.2466315   -2.5774030    3.3862080 
H     1.3775026   -5.1624897    1.6577015 
H    -0.2570137   -5.5903007    3.7837904 
H    -2.6952346   -4.5423869    3.1949516 
H    -2.5691740   -3.4855395    0.7022894 
H    -0.0379955   -3.8407660   -0.2441390 
H     4.6587368   -1.2657816    0.6626252 
H     2.0715625    0.9237892    3.3755548 
H     3.1635427   -3.2293137    1.3333462 
H     1.2305836   -1.0246525   -1.8490352 
H     6.6142867   -0.6876417    2.0711835 
H     4.0507937    1.5549536    4.7445897 
H     3.6815935   -5.0682141   -0.2527457 
H     1.7398821   -2.8809612   -3.4444121 
H     6.3279494    0.7228165    4.1178153 
H     2.9657781   -4.9105894   -2.6427114 
H    -1.5103827    0.8506351    2.6107461 
C    -3.1697801   -0.5044298    2.3788867 
H    -3.9023063    0.1007193    1.8261851 
H    -3.3302416   -1.5657066    2.1327164 
H    -3.3781967   -0.3702586    3.4533188 
H    -1.0650483   -1.5994580   -0.6366443 
H    -2.1271911    2.5421164   -0.7087962 
C    -1.5433385   -1.4761995   -3.3828269 
C    -1.4699590   -0.3367374   -2.3522127 
C    -1.8144536   -0.8342842   -0.9280662 
C    -3.2065622   -1.5070032   -0.9233751 
C    -3.2484220   -2.6628029   -1.9427604 
C    -2.9138620   -2.1703957   -3.3591977 
H    -0.7568276   -2.2200676   -3.1504920 
H    -1.3227749   -1.0801913   -4.3907863 
H    -2.1738340    0.4681181   -2.6383120 
H    -0.4631261    0.1225498   -2.3507048 
H    -3.4640327   -1.8707479    0.0823565 
H    -3.9816552   -0.7730128   -1.1943159 
H    -2.5214427   -3.4447542   -1.6476775 
H    -4.2469127   -3.1346747   -1.9204820 
H    -3.6929365   -1.4566633   -3.6921196 
H    -2.9295805   -3.0124676   -4.0736054 
C    -3.4034173    4.1749179    1.1574216 
C    -2.6091382    2.8713476    1.3615887 
C    -2.6290135    1.9766896    0.0970941 
C    -4.0697770    1.7163767   -0.3973627 
C    -4.8209423    3.0468286   -0.5995902 
C    -4.8361005    3.8914432    0.6825854 
H    -2.8924364    4.7995467    0.4036505 
H    -3.4086364    4.7492604    2.1012579 
H    -3.0583050    2.3249115    2.2122907 
H    -1.5626693    3.1021235    1.6417589 
H    -4.0444873    1.1706914   -1.3545378 
H    -4.6294738    1.0874653    0.3191868 
H    -4.3259577    3.6168559   -1.4097082 
H    -5.8502452    2.8342971   -0.9399061 
H    -5.3900646    3.3498945    1.4751082 
H    -5.3761068    4.8397817    0.5120661 
