124
Energy =
C     0.4239784   -2.6198363   -1.7858101 
C     1.1910171   -1.6575197   -2.5045622 
C     2.3806771   -1.1326292   -1.9527956 
H     0.8006027   -1.2416807   -3.4412330 
Pd    0.5470273   -0.6955453   -0.6057439 
P     1.3376393    1.2775211    0.4184661 
P    -1.1124124   -1.0835224    0.9921308 
H     0.9794948   -3.2233009   -1.0540892 
H     2.8249625   -1.6894197   -1.1138469 
C    -3.1165929   -4.6399896   -3.1586363 
C    -2.4822827   -5.0251070   -1.9687388 
C    -1.3405878   -4.3459882   -1.5313273 
C    -0.8093140   -3.2617027   -2.2679490 
C    -1.4737959   -2.8710476   -3.4541202 
C    -2.6068062   -3.5602312   -3.8974362 
H    -4.0138381   -5.1652116   -3.5001607 
H    -2.8810273   -5.8548604   -1.3769428 
H    -0.8507602   -4.6501477   -0.5993964 
H    -1.0967550   -2.0300288   -4.0456651 
H    -3.1031259   -3.2495252   -4.8224310 
C     5.1826516    1.5975622   -3.7339174 
C     3.9832270    1.3055713   -4.4060626 
C     3.0542465    0.4259987   -3.8435943 
C     3.3057532   -0.1877278   -2.5935039 
C     4.5294494    0.0940921   -1.9431336 
C     5.4538100    0.9828837   -2.5029768 
H     5.9063616    2.2890673   -4.1774276 
H     3.7770685    1.7621129   -5.3796536 
H     2.1287520    0.2101911   -4.3871000 
H     4.7506400   -0.3914048   -0.9871359 
H     6.3897435    1.1926085   -1.9748541 
Fe   -2.5843109    2.0615445    0.5926672 
C    -1.8035582    0.4751768    1.6156387 
C    -1.0530334    1.6846568    1.9124106 
C    -1.9891447    2.6360965    2.4556772 
C    -3.2917181    2.0403790    2.4955164 
C    -3.1913432    0.7161467    1.9587945 
C    -4.2066759    2.8179104   -0.3833867 
C    -3.1590473    3.7962251   -0.3268705 
C    -2.0092705    3.2526260   -0.9839451 
C    -2.3371765    1.9313182   -1.4376010 
C    -3.7021896    1.6652600   -1.0709828 
C     0.4479974    1.8567906    1.9880656 
H    -1.7370002    3.6500924    2.7734670 
H    -4.2102222    2.5287758    2.8263403 
H    -4.0073699    0.0039283    1.8214241 
H    -5.2041937    2.9170380    0.0486682 
H    -3.2193795    4.7753201    0.1518874 
H    -1.0567322    3.7602286   -1.1072049 
H    -1.6583495    1.2515167   -1.9575166 
H    -4.2667844    0.7518964   -1.2570581 
H     0.6510369    2.9394367    2.0434589 
C     0.9901017    1.2103702    3.2817817 
H     0.4091695    1.5932143    4.1381160 
H     0.8773695    0.1142989    3.2695987 
H     2.0538587    1.4507604    3.4372723 
C     5.5907104   -0.0387732    1.9015958 
C     4.4254559   -0.8229825    2.0143859 
C     3.2072898   -0.3343325    1.5450308 
C     3.0798994    0.9478136    0.9562743 
C     4.2443674    1.7517418    0.8218122 
C     5.4631354    1.2263230    1.3060937 
H     4.4684714   -1.8199634    2.4673257 
H     2.3180305   -0.9683886    1.6336329 
H     6.3622460    1.8443638    1.1951651 
C     1.0730375    4.8868584   -2.4759226 
C     1.2147524    5.1554756   -1.0988713 
C     1.2953926    4.0691855   -0.2120294 
C     1.2545283    2.7422917   -0.6850579 
C     1.1002675    2.5086372   -2.0621433 
C     1.0057262    3.5747184   -2.9766703 
H     0.9906982    5.7283493   -3.1745600 
H     1.3942060    4.2780198    0.8582166 
H     1.0249882    1.4767943   -2.4193607 
C     6.9241647   -0.5499442    2.3942313 
H     7.7264938    0.1890574    2.2385440 
H     6.8793210   -0.7870135    3.4725728 
H     7.2075355   -1.4807990    1.8701276 
C     4.2925058    3.1111691    0.1616583 
H     5.3364848    3.4541087    0.0856829 
H     3.8670439    3.0858388   -0.8544372 
H     3.7336994    3.8679185    0.7371175 
C     1.2833153    6.5801391   -0.5957653 
H     0.4855650    7.2000310   -1.0404340 
H     1.1878723    6.6280883    0.5014120 
H     2.2483025    7.0444781   -0.8712243 
C     0.8312777    3.3192430   -4.4561914 
H     1.7999048    3.4048863   -4.9818684 
H     0.4371904    2.3073711   -4.6462631 
H     0.1420455    4.0507438   -4.9104840 
C     1.0710964   -3.6802607    4.2371023 
C     1.4102020   -3.6988677    2.8968814 
C     0.6951761   -2.8862795    1.9845699 
C    -0.3646751   -2.0685009    2.3823090 
H     1.6246435   -4.2887261    4.9605909 
H     2.2321129   -4.3245374    2.5345485 
H     0.9953194   -2.8828522    0.9320604 
C    -0.7646729   -2.0649351    3.7701627 
C    -0.0099238   -2.8774156    4.7028481 
C    -0.3674983   -2.8764022    6.0837445 
C    -1.4317485   -2.1226624    6.5464338 
C    -2.1863156   -1.3425306    5.6339085 
C    -1.8621186   -1.3158772    4.2864938 
H     0.2172422   -3.4941146    6.7741157 
H    -1.6962231   -2.1325802    7.6086354 
H    -3.0366333   -0.7543329    5.9944822 
H    -2.4597644   -0.7078787    3.6093034 
C    -3.1813765   -1.6705957   -0.7280000 
C    -2.6050742   -2.0100602    0.4915652 
C    -3.1942821   -3.0251664    1.3013129 
C    -4.3574290   -3.6513530    0.8857113 
H    -2.6902349   -0.9344059   -1.3718795 
H    -2.7279139   -3.3081105    2.2498724 
H    -4.8076149   -4.4337564    1.5065647 
C    -4.9934305   -3.2935990   -0.3396007 
C    -4.3943023   -2.2707281   -1.1606759 
C    -5.0271888   -1.9033095   -2.3852587 
C    -6.2011355   -2.5186487   -2.7849151 
C    -6.7851943   -3.5377153   -1.9830209 
C    -6.1947139   -3.9171194   -0.7881790 
H    -4.5628307   -1.1324906   -3.0099649 
H    -6.6821643   -2.2278772   -3.7245924 
H    -7.7104032   -4.0209461   -2.3138272 
H    -6.6486935   -4.6990020   -0.1694705 
