124
Energy =
C     1.4846186    2.7412781   -1.3891779 
C     0.7527955    3.4047533   -0.3500195 
C     1.0722254    3.1880415    1.0038026 
H    -0.1366907    3.9938040   -0.6080646 
Pd    0.4787871    1.2135880   -0.1515936 
P    -0.8593915    0.0109078    1.3581005 
P     1.0545600   -0.5915722   -1.5317006 
H     2.5494611    2.5492875   -1.1913144 
H     2.0336894    2.6934469    1.2128152 
C     0.4329459    2.8641542   -5.5709144 
C    -0.5638963    3.0173080   -4.5919214 
C    -0.2311756    2.9909633   -3.2337293 
C     1.1112325    2.8241388   -2.8177384 
C     2.1056630    2.6998267   -3.8157089 
C     1.7700135    2.7100843   -5.1762871 
H     0.1684975    2.8759177   -6.6330841 
H    -1.6088170    3.1502528   -4.8907838 
H    -1.0257151    3.0777943   -2.4840727 
H     3.1569832    2.6094505   -3.5190085 
H     2.5579046    2.6102203   -5.9302591 
C    -0.7008865    4.9693052    4.4904352 
C     0.3226056    4.0165892    4.6098862 
C     0.9021012    3.4658218    3.4612501 
C     0.4594532    3.8368993    2.1695035 
C    -0.5492932    4.8242441    2.0668504 
C    -1.1221802    5.3807242    3.2141560 
H    -1.1548320    5.4056691    5.3859124 
H     0.6756218    3.7084192    5.5995928 
H     1.7120532    2.7340103    3.5570916 
H    -0.8886951    5.1631852    1.0829322 
H    -1.9003439    6.1445064    3.1150602 
Fe   -1.0441450   -3.6847493    1.4043938 
C    -1.2106353   -1.7092358    0.8425726 
C    -0.4063407   -2.4777771   -0.1007071 
C    -1.2280316   -3.5458742   -0.6091721 
C    -2.5147319   -3.4712891    0.0184862 
C    -2.5035934   -2.3626076    0.9241461 
C    -0.2513232   -5.5516515    1.5820035 
C     0.5804429   -4.5998225    2.2627603 
C    -0.2164242   -3.9686024    3.2730207 
C    -1.5415270   -4.5111788    3.2129554 
C    -1.5618332   -5.4968745    2.1694260 
C     1.0156722   -2.1771711   -0.5027451 
H    -0.9139024   -4.3163438   -1.3145478 
H    -3.3425445   -4.1660430   -0.1341103 
H    -3.3384841   -2.0517760    1.5537572 
H     0.0496504   -6.1951995    0.7529589 
H     1.6351278   -4.4010295    2.0631496 
H     0.1313177   -3.2140595    3.9757006 
H    -2.3826481   -4.2279963    3.8480157 
H    -2.4260763   -6.0874752    1.8601527 
H     1.5538549   -1.8491211    0.4056974 
C     1.7513418   -3.3996935   -1.0797993 
H     1.6147860   -4.2489953   -0.3894128 
H     1.3678974   -3.6994743   -2.0658339 
H     2.8307610   -3.2084427   -1.1756334 
H    -3.1495124    0.0762621    2.1648921 
C    -4.6987442    1.3976953    0.2512890 
C    -3.2837338    0.8070061    0.1228838 
C    -2.5785214    0.7481385    1.4944677 
C    -2.5315487    2.1571985    2.1142280 
C    -3.9408972    2.7579279    2.2504096 
C    -4.6700027    2.7917753    0.8982308 
H    -5.3204306    0.7179599    0.8670116 
H    -5.1732813    1.4411135   -0.7457693 
H    -2.6769479    1.4451900   -0.5498225 
H    -3.3262368   -0.1930051   -0.3404630 
H    -2.0257981    2.1587026    3.0952793 
H    -1.9258129    2.7986109    1.4497264 
H    -4.5258210    2.1547144    2.9723962 
H    -3.8630202    3.7738434    2.6779781 
H    -4.1442005    3.4945260    0.2208072 
H    -5.6962267    3.1811683    1.0217846 
H    -0.0755122    1.1451896    3.2696493 
C     1.8716083   -0.4326023    4.5136652 
C     1.2410880   -0.5546080    3.1139595 
C    -0.1752998    0.0575940    3.0850729 
C    -1.0955266   -0.5355125    4.1686034 
C    -0.4463751   -0.4050560    5.5610087 
C     0.9633534   -1.0180276    5.6082745 
H     2.0526872    0.6381665    4.7326078 
H     2.8596666   -0.9269999    4.5247703 
H     1.1780832   -1.6176155    2.8129401 
H     1.8764835   -0.0488997    2.3605114 
H    -2.0695657   -0.0151759    4.1698442 
H    -1.3018884   -1.5938597    3.9267598 
H    -0.3819053    0.6703279    5.8201881 
H    -1.0964546   -0.8740036    6.3212675 
H     0.8950874   -2.1163578    5.4832787 
H     1.4154599   -0.8537698    6.6024289 
H     0.4229371    0.0541535   -3.7136260 
C    -2.3282616   -0.2933438   -4.0079755 
C    -1.4643878   -0.3477135   -2.7378362 
C    -0.0046402   -0.7383352   -3.0631954 
C     0.0286615   -2.0852464   -3.8204179 
C    -0.8201847   -2.0047872   -5.1037235 
C    -2.2731755   -1.6153922   -4.7892801 
H    -1.9609829    0.5281017   -4.6524184 
H    -3.3701430   -0.0448281   -3.7347556 
H    -1.8853281   -1.0868649   -2.0303604 
H    -1.4744005    0.6285598   -2.2241272 
H     1.0599077   -2.3851299   -4.0661318 
H    -0.3926510   -2.8687718   -3.1648942 
H    -0.3743520   -1.2545025   -5.7860973 
H    -0.7830971   -2.9752628   -5.6305635 
H    -2.7418046   -2.4179308   -4.1856192 
H    -2.8604315   -1.5360756   -5.7214807 
H     2.7706723    0.7032429   -2.4557793 
C     4.7940729   -0.6787068   -3.6293866 
C     3.3801173   -1.1700488   -3.2573606 
C     2.8245445   -0.3347087   -2.0832498 
C     3.7735647   -0.3379723   -0.8628857 
C     5.1805870    0.1420171   -1.2609367 
C     5.7444258   -0.6941750   -2.4214829 
H     4.7221015    0.3539255   -4.0251137 
H     5.1964472   -1.3016533   -4.4480226 
H     3.4204751   -2.2418446   -2.9950523 
H     2.7181215   -1.0725928   -4.1345405 
H     3.3554328    0.3026853   -0.0611728 
H     3.8456585   -1.3603444   -0.4446610 
H     5.1263489    1.2061724   -1.5665036 
H     5.8530908    0.0978314   -0.3855566 
H     5.8872345   -1.7391022   -2.0812123 
H     6.7412784   -0.3195099   -2.7139856 
