134
Energy =
C     1.5109667    2.4178703    2.4922645 
C     1.3433858    3.2213774    1.3463688 
C     0.0248030    3.4519199    0.8457521 
H     2.2201194    3.5793968    0.7927305 
Pd    0.5126767    1.2610120    0.7263768 
P    -1.5951906    0.6148318   -0.1190649 
P     1.7196896   -0.7807707    0.6164877 
H     0.5993963    2.1952493    3.0686872 
H    -0.7817066    3.4721379    1.5890311 
C     5.0742405    1.5959286    4.7362744 
C     3.8493476    1.0071323    5.0899659 
C     2.6988603    1.2922529    4.3480886 
C     2.7535355    2.1469904    3.2191503 
C     3.9916563    2.7421390    2.8832552 
C     5.1360499    2.4744271    3.6416987 
H     5.9746963    1.3863242    5.3223282 
H     3.7901102    0.3385968    5.9548637 
H     1.7378756    0.8527985    4.6373742 
H     4.0590599    3.4302691    2.0350768 
H     6.0843415    2.9542601    3.3796774 
C    -0.9514724    5.4159840   -2.8512071 
C     0.3385075    4.8907504   -2.6642415 
C     0.6746523    4.2545755   -1.4655389 
C    -0.2711427    4.1459775   -0.4164860 
C    -1.5571827    4.7015069   -0.6119171 
C    -1.8978281    5.3211800   -1.8198176 
H    -1.2150000    5.8935556   -3.7996440 
H     1.0761880    4.9560343   -3.4690991 
H     1.6731803    3.8173376   -1.3526990 
H    -2.2910044    4.6518291    0.1984168 
H    -2.9039846    5.7310247   -1.9499876 
Fe   -2.3521299   -4.1388662   -0.1843436 
C    -1.5928723   -2.2615872   -0.2671586 
C    -0.6065639   -3.1736154    0.3033942 
C    -0.3828526   -4.2292891   -0.6549025 
H     0.2969423   -5.0696937   -0.5062649 
C    -1.1723721   -3.9645101   -1.8207596 
H    -1.2316489   -4.5877998   -2.7145746 
C    -1.9158759   -2.7615948   -1.5890489 
H    -2.6410093   -2.3407733   -2.2839168 
C    -4.2526360   -4.0186121    0.5651050 
H    -4.8071261   -3.1043200    0.7872826 
C    -3.4061262   -4.7331636    1.4772912 
H    -3.2189655   -4.4657802    2.5190069 
C    -2.8650358   -5.8691188    0.7842520 
H    -2.1795911   -6.6120239    1.1965170 
C    -3.3852382   -5.8592605   -0.5532833 
H    -3.1508498   -6.5809096   -1.3379022 
C    -4.2423645   -4.7154238   -0.6893852 
H    -4.7700799   -4.4132419   -1.5963039 
C     0.1392333   -3.0506025    1.5848939 
C     1.1195273   -2.0470007    1.8246201 
C     1.6667718   -1.9392871    3.1262039 
H     2.3820731   -1.1422311    3.3468584 
C     1.3316631   -2.8343603    4.1464067 
H     1.7789535   -2.7195667    5.1391016 
C     0.4441949   -3.8851111    3.8777846 
H     0.1938276   -4.6164343    4.6528962 
C    -0.1423019   -3.9757777    2.6126269 
H    -0.8660972   -4.7640347    2.3928346 
C    -2.8661810    1.7367294    0.6263412 
C    -3.8857950    2.3667437   -0.1096045 
H    -4.0072359    2.1805581   -1.1793836 
C    -4.7485240    3.2785894    0.5189456 
C    -4.6151946    3.5779134    1.8823646 
H    -5.2802317    4.3000987    2.3623569 
C    -3.5997261    2.9485951    2.6147194 
C    -2.7367839    2.0380587    1.9939602 
H    -1.9312548    1.5836784    2.5800969 
C    -1.9725642    0.7349978   -1.9169296 
C    -3.1145753    0.1284307   -2.4677365 
H    -3.8380380   -0.3910896   -1.8325709 
C    -3.3473282    0.1745342   -3.8498725 
C    -2.4552456    0.8392822   -4.6985651 
H    -2.6254862    0.8486461   -5.7782203 
C    -1.3408348    1.4884427   -4.1444093 
C    -1.1041713    1.4477206   -2.7641039 
H    -0.2377131    1.9691590   -2.3499937 
C    -2.2733535   -1.0902271    0.4049209 
H    -3.3165131   -1.0736000    0.0428332 
C    -2.3061593   -1.1786668    1.9431910 
H    -2.5160615   -2.2218427    2.2249840 
H    -1.3406569   -0.8978122    2.3973962 
H    -3.0978884   -0.5397397    2.3638604 
C    -4.5532684   -0.5634514   -4.3899037 
F    -4.7309054   -0.3665635   -5.7080614 
F    -4.4171420   -1.9059884   -4.1862291 
F    -5.6819925   -0.1862994   -3.7461065 
C    -0.3851932    2.2195429   -5.0648689 
F     0.8336651    2.3871938   -4.4892192 
F    -0.1995197    1.5346316   -6.2155547 
F    -0.8459371    3.4477417   -5.3977770 
C    -5.7556883    4.0381664   -0.3187756 
F    -6.8444690    4.3855338    0.3954866 
F    -5.2027172    5.1871854   -0.7966265 
F    -6.1620260    3.3175677   -1.3877282 
C    -3.3581040    3.2564168    4.0755877 
F    -3.5248810    2.1542656    4.8440771 
F    -2.0687654    3.6667583    4.2582439 
F    -4.1683972    4.2216764    4.5429164 
H     3.4987953    0.0036807    2.0203218 
C     5.7085742    0.6541572    0.4828443 
C     4.2655929    0.3412723    0.0446870 
C     3.5425459   -0.5628800    1.0697763 
C     4.3555837   -1.8540460    1.3274162 
C     5.7746840   -1.4986346    1.8092283 
C     6.5063396   -0.6251141    0.7781836 
H     5.6824254    1.2771513    1.3933536 
H     6.2059523    1.2523009   -0.3020856 
H     4.3043189   -0.1742574   -0.9312105 
H     3.6939775    1.2773719   -0.1082698 
H     3.8519541   -2.4978960    2.0668112 
H     4.4313602   -2.4422528    0.3976558 
H     5.7073236   -0.9569751    2.7738942 
H     6.3403756   -2.4276208    2.0026861 
H     6.6410381   -1.2032364   -0.1574703 
H     7.5185446   -0.3666477    1.1374329 
H     0.5810214   -1.7774815   -1.2076543 
C     2.2262261   -3.1933205   -2.8788847 
C     2.5333793   -2.6575791   -1.4661253 
C     1.6320618   -1.4496445   -1.1371478 
C     1.8056240   -0.3383224   -2.1989414 
C     1.4413952   -0.8853269   -3.5894863 
C     2.3257610   -2.0918409   -3.9464375 
H     1.2047450   -3.6144879   -2.8870273 
H     2.9165070   -4.0235215   -3.1136544 
H     3.5925264   -2.3436078   -1.4298826 
H     2.4052147   -3.4552132   -0.7133151 
H     1.1811025    0.5332411   -1.9362441 
H     2.8478597    0.0219086   -2.2201335 
H     0.3753029   -1.1880178   -3.5926435 
H     1.5518313   -0.0883940   -4.3444010 
H     3.3775433   -1.7536167   -4.0306865 
H     2.0450933   -2.4946350   -4.9360290 
