124
Energy =
C     1.4572681   -3.2464605   -0.0379318 
C     2.3015404   -2.5117744   -0.9159805 
C     3.1461623   -1.4851325   -0.4241930 
H     2.1932654   -2.6419337   -1.9993249 
Pd    0.9575164   -1.0430578    0.0209570 
P     1.0558455    1.2950583   -0.1614786 
P    -1.2339905   -1.0380643    0.8467088 
H     1.7690171   -3.3214401    1.0134899 
H     3.3985554   -1.5229232    0.6456187 
C    -1.3966617   -6.2589943   -1.1862765 
C    -0.9538709   -6.1538000    0.1402687 
C    -0.0126756   -5.1799013    0.4929306 
C     0.4960499   -4.2771634   -0.4683856 
C     0.0521538   -4.4057567   -1.8066541 
C    -0.8804682   -5.3868924   -2.1597745 
H    -2.1319778   -7.0208358   -1.4647196 
H    -1.3399008   -6.8341040    0.9060811 
H     0.3416852   -5.1152691    1.5263346 
H     0.4277333   -3.7247875   -2.5779779 
H    -1.2102942   -5.4711455   -3.2008115 
C     5.9154503    0.9174361   -2.6726410 
C     5.8329196    1.0306873   -1.2761785 
C     4.9201308    0.2460225   -0.5629344 
C     4.0537881   -0.6523342   -1.2297052 
C     4.1303778   -0.7346608   -2.6399176 
C     5.0621654    0.0295206   -3.3486040 
H     6.6421230    1.5147973   -3.2329072 
H     6.4889301    1.7223762   -0.7379145 
H     4.8726052    0.3288427    0.5275523 
H     3.4684781   -1.4105203   -3.1897191 
H     5.1206728   -0.0631995   -4.4376116 
Fe   -2.6554182    1.7097697    2.8042428 
C    -1.3609576    0.3326443    2.0342589 
C    -0.8870747    1.6839106    1.7712015 
C    -0.7336573    2.3451851    3.0391720 
C    -1.1019945    1.4261361    4.0785856 
C    -1.5001474    0.1907401    3.4693339 
C    -4.1072072    2.7058113    1.7586185 
C    -4.5812347    1.4070930    2.1557216 
C    -4.5046829    1.3243717    3.5844726 
C    -3.9914180    2.5731346    4.0736694 
C    -3.7426513    3.4262374    2.9454167 
C    -0.5173585    2.2000993    0.4112667 
H    -0.4147154    3.3780941    3.1849032 
H    -1.1199304    1.6435108    5.1480144 
H    -1.8424795   -0.7046383    3.9888991 
H    -4.0417221    3.0910135    0.7393882 
H    -4.9308901    0.6148145    1.4916713 
H    -4.7749990    0.4585303    4.1912953 
H    -3.7983398    2.8215534    5.1188451 
H    -3.3377106    4.4391420    2.9838136 
H    -1.2682634    1.8409700   -0.3106353 
C    -0.4206649    3.7248876    0.3072788 
H    -1.3889261    4.1682021    0.6007279 
H     0.3601463    4.1311077    0.9710236 
H    -0.1931873    4.0334182   -0.7266694 
C     4.5102558    3.5868803    2.0259819 
C     3.9553699    4.0673582    0.8232226 
C     2.9201949    3.3751783    0.1935754 
C     2.4034588    2.1714879    0.7275679 
C     2.9121045    1.6969483    1.9685290 
C     3.9621839    2.4159406    2.5752460 
H     4.3379703    4.9902749    0.3732432 
H     2.5062920    3.7769983   -0.7351354 
H     4.3655706    2.0401587    3.5234358 
C     1.0590858    2.1761431   -4.7111204 
C    -0.1169092    1.7527593   -4.0672022 
C    -0.0677557    1.5133200   -2.6824393 
C     1.1276944    1.6924495   -1.9536787 
C     2.3049167    2.0629570   -2.6361634 
C     2.2746075    2.3300557   -4.0176868 
H     1.0291816    2.3908120   -5.7864834 
H    -0.9806769    1.1747088   -2.1800466 
H     3.2536551    2.1521571   -2.0989264 
C     5.6382021    4.3247165    2.7087043 
H     6.0376001    3.7574251    3.5648166 
H     6.4665165    4.5206566    2.0049249 
H     5.2925015    5.3065533    3.0815604 
C     2.3644902    0.4916795    2.6975801 
H     3.1359687    0.0230705    3.3308591 
H     1.5170347    0.7775936    3.3461195 
H     1.9754633   -0.2694057    1.9927595 
C    -1.4045338    1.5428257   -4.8327565 
H    -2.2775733    1.9056012   -4.2640371 
H    -1.3837448    2.0567330   -5.8077001 
H    -1.5724280    0.4664301   -5.0222233 
C     3.5153766    2.7883999   -4.7515667 
H     3.8351092    2.0373017   -5.4966221 
H     3.3212662    3.7271067   -5.3005222 
H     4.3552405    2.9573692   -4.0597622 
C    -2.9228926   -4.8221351    2.9969586 
C    -3.6467497   -4.1917996    2.0006598 
C    -3.1293865   -3.0346289    1.3660290 
C    -1.8931641   -2.5060468    1.7314538 
H    -3.3149909   -5.7214304    3.4842770 
H    -4.6209995   -4.5824114    1.6905285 
H    -3.7147431   -2.5580347    0.5737257 
C    -1.1221721   -3.1347973    2.7722155 
C    -1.6532673   -4.3188750    3.4048474 
C    -0.8838379   -4.9730939    4.4126300 
C     0.3573398   -4.4891202    4.7919594 
C     0.8732863   -3.3141455    4.1844992 
C     0.1474783   -2.6528770    3.2063246 
H    -1.2941603   -5.8734221    4.8828187 
H     0.9382727   -5.0045488    5.5633728 
H     1.8488946   -2.9245309    4.4939866 
H     0.5551552   -1.7446811    2.7524784 
C    -3.1418156    0.3238853   -0.7563762 
C    -2.3381047   -0.7956230   -0.5906626 
C    -2.2549179   -1.7754965   -1.6292436 
C    -2.9832773   -1.6194086   -2.7924039 
H    -3.1962747    1.0638295    0.0459373 
H    -1.6199943   -2.6564196   -1.4928517 
H    -2.9251114   -2.3807344   -3.5782754 
C    -3.8083827   -0.4725804   -2.9997478 
C    -3.8811325    0.5245373   -1.9601539 
C    -4.6830313    1.6844445   -2.1721088 
C    -5.3829078    1.8540328   -3.3564593 
C    -5.3163039    0.8672927   -4.3769086 
C    -4.5474423   -0.2726664   -4.2007181 
H    -4.7421022    2.4418731   -1.3836275 
H    -5.9946895    2.7491451   -3.5082532 
H    -5.8775894    1.0118982   -5.3057045 
H    -4.4937846   -1.0324044   -4.9880767 
