124
Energy =
C    -0.8012124    2.5621609   -2.3980251 
C    -0.8844944    1.3263539   -3.0466153 
C    -1.8982118    0.3524472   -2.7431110 
H    -0.1272720    1.0649055   -3.7972199 
Pd   -0.5829270    0.4697938   -0.9994181 
P    -1.3603295   -1.4191963    0.1319528 
P     1.2008237    0.8384031    0.5469327 
H    -1.6391288    2.8431401   -1.7422900 
H    -2.8635869    0.7402876   -2.3864395 
C     1.7847772    5.8504186   -3.3898587 
C     0.7203017    6.0176009   -2.4909648 
C    -0.1083710    4.9349245   -2.1789782 
C     0.1083026    3.6573390   -2.7504396 
C     1.1697750    3.5154770   -3.6779598 
C     1.9988235    4.5965192   -3.9881335 
H     2.4367475    6.6949474   -3.6352073 
H     0.5327515    6.9954656   -2.0357776 
H    -0.9420345    5.0752633   -1.4815035 
H     1.3542833    2.5502905   -4.1589113 
H     2.8161011    4.4638603   -4.7046211 
C    -2.1167997   -3.2281011   -5.1414943 
C    -0.8809314   -2.8020355   -4.6254155 
C    -0.8070226   -1.6419655   -3.8469127 
C    -1.9681142   -0.8866256   -3.5556521 
C    -3.2001628   -1.3230655   -4.0854578 
C    -3.2724999   -2.4796353   -4.8752476 
H    -2.1757773   -4.1347752   -5.7520949 
H     0.0271267   -3.3791892   -4.8296462 
H     0.1562900   -1.3255934   -3.4290754 
H    -4.1085154   -0.7456325   -3.8812385 
H    -4.2374700   -2.7974909   -5.2837096 
Fe    2.7682834   -1.8620486    2.4367315 
C     1.4002650   -0.4399016    1.8427785 
C     0.8359779   -1.7809121    1.7972223 
C     0.9171043   -2.3323553    3.1255138 
C     1.5424866   -1.3721380    3.9850851 
C     1.8570448   -0.2164722    3.1999969 
C     3.6963204   -3.5226936    1.6687377 
C     4.2186542   -2.3349594    1.0573548 
C     4.7613247   -1.5036203    2.0963497 
C     4.5708025   -2.1770670    3.3466641 
C     3.9113146   -3.4237658    3.0831747 
C     0.1439785   -2.4405757    0.6343383 
H     0.5923106   -3.3348067    3.4126234 
H     1.7825784   -1.5143334    5.0403979 
H     2.3480288    0.6853959    3.5694026 
H     3.2150833   -4.3579554    1.1571142 
H     4.2212137   -2.1136176   -0.0112957 
H     5.2472695   -0.5375385    1.9630761 
H     4.8549125   -1.7973137    4.3297699 
H     3.6028665   -4.1568955    3.8307904 
H     1.9621735    2.4525680    2.2007693 
C    -0.3342757    3.6467203    3.2945442 
C    -0.1939283    2.3581146    2.4650722 
C     1.0580911    2.4030167    1.5642430 
C     1.0042788    3.6461920    0.6591265 
C     0.8746525    4.9395433    1.4808797 
C    -0.3580692    4.8952087    2.3977874 
H     0.5158621    3.7162082    4.0012219 
H    -1.2514310    3.5919731    3.9086222 
H    -1.0822105    2.2406644    1.8144994 
H    -0.1642588    1.4787636    3.1314567 
H     1.8829234    3.7030444   -0.0060217 
H     0.1244289    3.5405094    0.0016838 
H     1.7878364    5.0769998    2.0923421 
H     0.8207695    5.8045684    0.7954337 
H    -1.2739578    4.8753013    1.7732970 
H    -0.4156680    5.8104341    3.0133767 
H     3.1311649   -0.2064685   -0.3131237 
C     5.3355914    1.4764676   -0.2067561 
C     3.9714055    1.6037620    0.4988349 
C     2.8775287    0.8705531   -0.3027361 
C     2.8055370    1.3766888   -1.7528413 
C     4.1727876    1.2732147   -2.4500072 
C     5.2663417    2.0008594   -1.6508519 
H     5.6441055    0.4125693   -0.2208649 
H     6.1043576    2.0222479    0.3692806 
H     3.7162976    2.6765230    0.5819312 
H     4.0207175    1.2008199    1.5257902 
H     2.0406180    0.8025749   -2.3094633 
H     2.4730101    2.4295977   -1.7567216 
H     4.4461634    0.2046196   -2.5579668 
H     4.1006051    1.6867748   -3.4725163 
H     5.0434545    3.0861356   -1.6345431 
H     6.2460461    1.8857396   -2.1474551 
H    -1.2449774   -0.4312872    2.2543118 
C    -3.0288165   -1.4583797    4.0437023 
C    -2.6366154   -2.0202792    2.6640219 
C    -2.1247915   -0.8823339    1.7543877 
C    -3.1766079    0.2418094    1.6069910 
C    -3.5800069    0.7848361    2.9905664 
C    -4.0758689   -0.3398428    3.9150177 
H    -2.1204589   -1.0627238    4.5398243 
H    -3.4106684   -2.2750634    4.6823585 
H    -3.5196005   -2.4999981    2.2028775 
H    -1.8666105   -2.8028393    2.7789429 
H    -2.7708198    1.0508783    0.9699154 
H    -4.0759014   -0.1409996    1.0939920 
H    -2.7059994    1.2787988    3.4568337 
H    -4.3577034    1.5607627    2.8726593 
H    -5.0128860   -0.7646616    3.5036896 
H    -4.3255136    0.0673233    4.9109404 
H    -2.1269984   -2.6229102   -1.7903613 
C    -4.8835424   -3.1046291   -1.5286319 
C    -3.9573822   -2.1530706   -0.7492740 
C    -2.4906826   -2.6452830   -0.7460197 
C    -2.3886205   -4.1087907   -0.2527012 
C    -3.3238174   -5.0280566   -1.0620131 
C    -4.7796680   -4.5440777   -1.0056959 
H    -4.6044818   -3.0895567   -2.5970323 
H    -5.9228426   -2.7354480   -1.4613913 
H    -4.3233777   -2.0899673    0.2914523 
H    -4.0124879   -1.1328926   -1.1706063 
H    -1.3534195   -4.4780557   -0.3528469 
H    -2.6536408   -4.1714343    0.8189540 
H    -2.9840266   -5.0469517   -2.1161802 
H    -3.2385285   -6.0609625   -0.6792485 
H    -5.1428453   -4.5894378    0.0404622 
H    -5.4304824   -5.2136101   -1.5956709 
H    -0.2394393   -3.4089949    0.9953864 
C     1.0129559   -2.6841461   -0.6134914 
H     0.4187239   -3.1160165   -1.4379160 
H     1.4533513   -1.7395663   -0.9776891 
H     1.8330876   -3.3773692   -0.3721339 
