112
Energy =
C     2.7698561    0.0337724   -2.3658637 
C     2.0134410    1.2293976   -2.5330658 
C     1.9573327    2.2255321   -1.5326563 
H     1.3377926    1.3141753   -3.3933548 
Pd    1.2185128    0.2115692   -0.7456045 
P    -0.6981194    0.8377767    0.5011102 
P     1.1683408   -1.9902144   -0.0051139 
H     3.6757615    0.0890149   -1.7473864 
H     2.7896305    2.2681364   -0.8133646 
C     2.6811125   -3.2540272   -5.1556210 
C     1.6643493   -2.2853304   -5.1845733 
C     1.6768208   -1.2207197   -4.2775204 
C     2.7231128   -1.0815109   -3.3332062 
C     3.7452590   -2.0587263   -3.3252264 
C     3.7193394   -3.1371439   -4.2180432 
H     2.6655345   -4.0914592   -5.8606901 
H     0.8476169   -2.3681430   -5.9091301 
H     0.8521758   -0.5010470   -4.2977424 
H     4.5662445   -1.9716650   -2.6075692 
H     4.5193296   -3.8839144   -4.1867369 
C    -0.4194155    5.8105602   -1.6582719 
C     0.7453428    5.7492501   -0.8794025 
C     1.5165978    4.5799333   -0.8586918 
C     1.1427102    3.4498190   -1.6193061 
C    -0.0225968    3.5343470   -2.4181407 
C    -0.7959955    4.6989809   -2.4325820 
H    -1.0281913    6.7202561   -1.6694037 
H     1.0530331    6.6138082   -0.2823063 
H     2.4209339    4.5340829   -0.2419574 
H    -0.3396711    2.6729211   -3.0148631 
H    -1.7002987    4.7414993   -3.0487766 
Fe   -1.3226260   -0.6175874    3.8427370 
C    -1.2794434   -0.3361634    1.7816555 
C    -0.6081627   -1.5744863    2.1715255 
C    -1.5631093   -2.3867121    2.8808762 
C    -2.8059272   -1.6791838    2.9560202 
C    -2.6301873   -0.4134334    2.3129069 
C    -2.2119182    0.1659670    5.5115896 
C    -1.5900792   -1.0927452    5.8084724 
C    -0.1900329   -0.9775934    5.5182403 
C     0.0534046    0.3507769    5.0399515 
C    -1.1971582    1.0562196    5.0368856 
C     0.7941891   -2.0368901    1.8460880 
H    -1.3545843   -3.3707111    3.3063741 
H    -3.7099462   -2.0189723    3.4649764 
H    -3.3907309    0.3614258    2.2356047 
H    -3.2752267    0.3943173    5.6051091 
H    -2.0983446   -1.9909170    6.1646007 
H     0.5503506   -1.7707820    5.6384658 
H     1.0207043    0.7601443    4.7465566 
H    -1.3467073    2.0920967    4.7350908 
H    -1.8812322    1.9900014   -1.1900709 
C    -4.4317017    1.0452253   -1.6581977 
C    -3.5067956    0.7672798   -0.4558163 
C    -2.0265141    0.9434241   -0.8529649 
C    -1.6997371    0.0087362   -2.0416492 
C    -2.6203421    0.2752673   -3.2441827 
C    -4.0994911    0.1382543   -2.8526907 
H    -4.3249315    2.1064253   -1.9589259 
H    -5.4836198    0.9094797   -1.3488710 
H    -3.6647326   -0.2703876   -0.1082214 
H    -3.7793168    1.4355013    0.3774782 
H    -0.6385311    0.1257104   -2.3369836 
H    -1.8117138   -1.0420985   -1.7208105 
H    -2.4359886    1.2990010   -3.6285461 
H    -2.3664422   -0.4229749   -4.0623977 
H    -4.3045104   -0.9154995   -2.5790748 
H    -4.7519272    0.3769142   -3.7114641 
H    -0.4366048    3.1780568    0.3270933 
C     0.7374330    4.1010479    2.7268626 
C     0.5838405    2.6753547    2.1652730 
C    -0.6297974    2.5561603    1.2215344 
C    -1.9259405    3.0615139    1.8846255 
C    -1.7449023    4.5024198    2.4011193 
C    -0.5590989    4.6161993    3.3718980 
H     1.0156530    4.7803508    1.8999946 
H     1.5693867    4.1256807    3.4537870 
H     0.4544219    1.9509779    2.9887104 
H     1.5016407    2.3789049    1.6222140 
H    -2.7607228    3.0324937    1.1637280 
H    -2.1913721    2.3905702    2.7223238 
H    -1.5735706    5.1716849    1.5352247 
H    -2.6776675    4.8416218    2.8867095 
H    -0.7749676    4.0354779    4.2900326 
H    -0.4299666    5.6641407    3.6961180 
H     0.8757481   -3.1009789    2.1314541 
C     1.8891354   -1.2338857    2.5742918 
H     1.7322480   -1.3257464    3.6583783 
H     2.8973582   -1.6105843    2.3395004 
H     1.8323393   -0.1645604    2.3066421 
C    -1.8684311   -4.4124246   -2.5557761 
C    -2.2594712   -3.9542830   -1.2891938 
C    -1.3528675   -3.2647032   -0.4711225 
C    -0.0318091   -3.0357718   -0.9124807 
C     0.3567588   -3.5034256   -2.1884938 
C    -0.5570170   -4.1863176   -3.0002863 
H    -2.5814685   -4.9465631   -3.1922552 
H    -3.2792128   -4.1292802   -0.9306152 
H    -1.6858018   -2.9007766    0.5022200 
H     1.3770128   -3.3415250   -2.5475326 
H    -0.2352092   -4.5395860   -3.9851284 
C     5.2395162   -4.2494354   -0.0845448 
C     4.0456987   -4.9700444   -0.2396922 
C     2.8112634   -4.3052973   -0.2331996 
C     2.7631639   -2.9035025   -0.0894162 
C     3.9677613   -2.1871575    0.0690198 
C     5.1985313   -2.8562584    0.0791110 
H     6.2009041   -4.7732678   -0.0887094 
H     4.0727710   -6.0577491   -0.3624079 
H     1.8863995   -4.8793314   -0.3497815 
H     3.9378872   -1.0977197    0.1822242 
H     6.1261977   -2.2884415    0.2052693 
