124
Energy =
C     0.4621121   -2.4498682   -1.9110125 
C     1.4881659   -1.5784699   -2.4057482 
C     2.6584722   -1.3191199   -1.6678654 
H     1.3008079   -1.0126306   -3.3272644 
Pd    0.6877405   -0.7300033   -0.5253010 
P     1.3332518    1.2766358    0.5343587 
P    -1.1442863   -1.1901379    0.8730731 
H     0.7845405   -3.2906842   -1.2802339 
H     2.8806629   -1.9905098   -0.8247770 
C    -3.1507226   -3.1827945   -4.1331989 
C    -2.6180524   -4.1696083   -3.2915591 
C    -1.4589173   -3.9127127   -2.5492877 
C    -0.7980065   -2.6685075   -2.6455132 
C    -1.3624913   -1.6727281   -3.4787539 
C    -2.5226921   -1.9289047   -4.2164088 
H    -4.0611287   -3.3825922   -4.7059820 
H    -3.1133621   -5.1415937   -3.2066996 
H    -1.0492754   -4.6889555   -1.8941801 
H    -0.8884449   -0.6864149   -3.5432146 
H    -2.9434467   -1.1460283   -4.8564200 
C     5.9788662    1.1825480   -2.7593958 
C     4.9363646    0.9782342   -3.6791502 
C     3.8489506    0.1652955   -3.3460497 
C     3.7817144   -0.4671228   -2.0812191 
C     4.8582432   -0.2816784   -1.1832556 
C     5.9384171    0.5431342   -1.5115934 
H     6.8256390    1.8242732   -3.0235959 
H     4.9784006    1.4486612   -4.6670073 
H     3.0542886    0.0099568   -4.0826792 
H     4.8390062   -0.7846827   -0.2128470 
H     6.7503433    0.6828160   -0.7911867 
Fe   -2.6690864    1.9126094    0.2701215 
C    -1.9396607    0.3583919    1.3921472 
C    -1.2391672    1.5923932    1.7265222 
C    -2.2372876    2.5336837    2.1637603 
C    -3.5253290    1.9105031    2.1140277 
C    -3.3544841    0.5766783    1.6254519 
C    -4.0912672    1.8461655   -1.1974567 
C    -3.9805782    3.1677937   -0.6464103 
C    -2.6337880    3.6224420   -0.8498837 
C    -1.9180085    2.5869117   -1.5349770 
C    -2.8141536    1.4927547   -1.7480170 
C     0.2396645    1.8079177    1.9706877 
H    -2.0312601    3.5584616    2.4801028 
H    -4.4779274    2.3828855    2.3607598 
H    -4.1443057   -0.1583170    1.4632703 
H    -4.9849885    1.2193859   -1.1756575 
H    -4.7745515    3.7167607   -0.1368221 
H    -2.2246828    4.5821899   -0.5313812 
H    -0.8813988    2.6235623   -1.8567802 
H    -2.5580296    0.5563896   -2.2458136 
H     0.4062991    2.8933222    2.0745116 
C     0.6566188    1.1544137    3.3064325 
H    -0.0108497    1.5155425    4.1067259 
H     0.5618431    0.0589734    3.2672809 
H     1.6947244    1.4160022    3.5690180 
C     5.7516645    1.7633020    2.0839111 
C     5.0997978    2.7822941    1.3613638 
C     3.7863400    2.6165991    0.9206391 
C     3.0649920    1.4280584    1.1798424 
C     3.7092043    0.3830694    1.8940980 
C     5.0340010    0.5828709    2.3321380 
H     5.6281325    3.7149380    1.1337818 
H     3.3182902    3.4230808    0.3500300 
H     5.5254240   -0.2304218    2.8804657 
C     1.0938011    4.7117850   -2.5778568 
C     0.7641909    5.0107669   -1.2406240 
C     0.8404772    3.9832136   -0.2848632 
C     1.2254984    2.6789222   -0.6544042 
C     1.5513900    2.4131999   -1.9958507 
C     1.4947220    3.4244922   -2.9747848 
H     1.0261961    5.5049490   -3.3322890 
H     0.5760582    4.2175091    0.7503861 
H     1.8411676    1.3989158   -2.2830539 
C     7.1739104    1.9399256    2.5622816 
H     7.8447258    2.1947456    1.7219000 
H     7.2419632    2.7684885    3.2906846 
H     7.5583833    1.0277406    3.0464769 
C     3.0534012   -0.9434836    2.1910537 
H     2.7281446   -1.0146894    3.2437924 
H     2.1607615   -1.1010630    1.5631958 
H     3.7511275   -1.7803851    2.0113492 
C     0.3223936    6.4048079   -0.8537047 
H    -0.5766720    6.7047747   -1.4220704 
H     0.0875369    6.4725929    0.2212585 
H     1.1091588    7.1470830   -1.0786565 
C     1.8602333    3.1288792   -4.4118107 
H     1.4408858    3.8815514   -5.0990027 
H     2.9583133    3.1296770   -4.5383485 
H     1.4963066    2.1345996   -4.7225727 
C     0.7278764   -3.8730353    4.2330044 
C     1.1307165   -3.9174188    2.9110376 
C     0.5290842   -3.0498368    1.9685166 
C    -0.4820120   -2.1533229    2.3200576 
H     1.1941604   -4.5253590    4.9794480 
H     1.9176029   -4.6060080    2.5875829 
H     0.8744183   -3.0767282    0.9292355 
C    -0.9514672   -2.1193066    3.6840368 
C    -0.3068095   -2.9862500    4.6496717 
C    -0.7279562   -2.9550388    6.0122596 
C    -1.7497826   -2.1187864    6.4257465 
C    -2.3949227   -1.2811398    5.4806206 
C    -2.0073994   -1.2822978    4.1499195 
H    -0.2266855   -3.6156708    6.7281122 
H    -2.0642973   -2.1062527    7.4742114 
H    -3.2106373   -0.6255468    5.8029616 
H    -2.5193311   -0.6258888    3.4479770 
C    -3.4437776   -1.7517804   -0.6156056 
C    -2.5280624   -2.2564879    0.3033201 
C    -2.6555118   -3.6088167    0.7460238 
C    -3.6895456   -4.4020763    0.2791324 
H    -3.3522580   -0.7190425   -0.9501430 
H    -1.9437791   -4.0194026    1.4671301 
H    -3.7826798   -5.4351388    0.6319011 
C    -4.6448933   -3.9041367   -0.6533732 
C    -4.5186725   -2.5414903   -1.1036525 
C    -5.4633483   -2.0300405   -2.0423116 
C    -6.4879032   -2.8305752   -2.5188358 
C    -6.6089698   -4.1777683   -2.0793600 
C    -5.7083894   -4.7028357   -1.1658191 
H    -5.3557330   -0.9978628   -2.3929738 
H    -7.2076799   -2.4307428   -3.2406657 
H    -7.4223788   -4.8005533   -2.4660025 
H    -5.8044037   -5.7397755   -0.8255730 
