112
Energy =
C     2.9871715    0.1300987   -1.4172517 
C     2.2806880    1.2554205   -1.9020831 
C     1.8391127    2.2820550   -1.0206649 
H     1.9682857    1.2825184   -2.9542863 
Pd    0.8986179    0.3112391   -0.4669838 
P    -1.0830628    0.9364853    0.6053932 
P     0.4878103   -1.9645010   -0.1878529 
H     3.5090460    0.2475157   -0.4552576 
H     2.4178345    2.4172079   -0.0942466 
C     4.4878925   -3.1402539   -3.7791874 
C     5.0881214   -2.7978143   -2.5590709 
C     4.5844314   -1.7338624   -1.8027140 
C     3.4727158   -0.9852195   -2.2492414 
C     2.8900581   -1.3317616   -3.4899609 
C     3.3882601   -2.3992087   -4.2425909 
H     4.8759210   -3.9763640   -4.3700056 
H     5.9501932   -3.3631361   -2.1910908 
H     5.0581136   -1.4731252   -0.8512485 
H     2.0357614   -0.7663496   -3.8724471 
H     2.9162996   -2.6554404   -5.1967916 
C    -0.2982401    5.8083036   -2.2638498 
C    -0.4927458    4.5973347   -2.9503128 
C     0.2007757    3.4468407   -2.5614261 
C     1.1032606    3.4786227   -1.4734430 
C     1.3021820    4.7069540   -0.8053070 
C     0.6087668    5.8601084   -1.1952062 
H    -0.8464453    6.7063082   -2.5661294 
H    -1.1956136    4.5497692   -3.7887451 
H     0.0201947    2.5042396   -3.0885439 
H     2.0138366    4.7533405    0.0261867 
H     0.7780856    6.8019408   -0.6630182 
Fe   -0.1933046   -0.5311027    3.7357114 
C    -1.3439858   -0.0746042    2.0987352 
C    -1.1239834   -1.5187768    2.2217660 
C    -1.6566381   -1.9097010    3.5083802 
C    -2.1695394   -0.7563331    4.1783286 
C    -1.9731220    0.3712784    3.3248640 
C     0.5982353   -0.0262983    5.5530990 
C     0.9690045   -1.3640966    5.1932121 
C     1.6872226   -1.3077700    3.9541052 
C     1.7524776    0.0669030    3.5389682 
C     1.0883979    0.8581228    4.5377487 
C    -0.7002102   -2.5520785    1.1895874 
H    -1.6452949   -2.9176086    3.9230410 
H    -2.6003998   -0.7351296    5.1808727 
H    -2.2465964    1.3986274    3.5641824 
H     0.0265023    0.2660776    6.4356441 
H     0.7273831   -2.2704120    5.7514006 
H     2.1020157   -2.1671338    3.4286059 
H     2.2185506    0.4509622    2.6286350 
H     0.9804039    1.9424869    4.5360743 
H    -3.4328053    1.2397314    0.2097380 
C    -4.4383040   -0.8471132   -1.3275651 
C    -3.1340157   -0.7568371   -0.5131347 
C    -2.6668120    0.7037398   -0.3820622 
C    -2.5310980    1.3820183   -1.7602531 
C    -3.8320514    1.2702628   -2.5747801 
C    -4.2862217   -0.1916405   -2.7093227 
H    -5.2528151   -0.3453099   -0.7690269 
H    -4.7313573   -1.9072838   -1.4314595 
H    -2.3567265   -1.3485240   -1.0274752 
H    -3.2846315   -1.1951844    0.4888107 
H    -2.2436712    2.4421461   -1.6461535 
H    -1.7057286    0.8887891   -2.3102095 
H    -4.6251000    1.8573547   -2.0713170 
H    -3.6856122    1.7279199   -3.5701611 
H    -3.5355765   -0.7561835   -3.2970557 
H    -5.2372544   -0.2483741   -3.2682073 
H    -0.7992203    3.2403619    0.1406705 
C    -0.0539845    4.5492227    2.5505072 
C    -0.0997420    3.0586581    2.1715622 
C    -1.1410372    2.7554942    1.0751923 
C    -2.5330465    3.3411095    1.4090184 
C    -2.4293787    4.8376695    1.7606081 
C    -1.4477750    5.0795735    2.9163511 
H     0.3370596    5.1353617    1.6995219 
H     0.6533038    4.6914646    3.3882193 
H    -0.3471982    2.4643450    3.0657803 
H     0.8965158    2.7109274    1.8397331 
H    -3.2144123    3.2201255    0.5497348 
H    -2.9924378    2.8000979    2.2567510 
H    -2.0864298    5.3945261    0.8663336 
H    -3.4338979    5.2229490    2.0112082 
H    -1.8159466    4.5652363    3.8268290 
H    -1.3967922    6.1556423    3.1600853 
H    -1.6070183   -2.7717751    0.5957054 
C    -0.2308932   -3.8705314    1.8343828 
H    -1.0574007   -4.3306830    2.4005573 
H     0.0996869   -4.6000487    1.0789884 
H     0.6117493   -3.6968125    2.5219163 
C    -1.6119034   -3.5259717   -4.0481107 
C    -1.5592764   -4.3531816   -2.9155346 
C    -0.9195116   -3.9139376   -1.7480439 
C    -0.3204157   -2.6360296   -1.7020261 
C    -0.3885894   -1.8119088   -2.8426100 
C    -1.0258931   -2.2524578   -4.0095228 
H    -2.1160905   -3.8720224   -4.9561597 
H    -2.0206100   -5.3458100   -2.9387163 
H    -0.8992542   -4.5727748   -0.8743233 
H     0.0391797   -0.8041333   -2.7910767 
H    -1.0753413   -1.5956657   -4.8841743 
C     4.3424500   -4.4439117    0.6118847 
C     4.1031076   -3.2338102    1.2813252 
C     2.9564835   -2.4868065    0.9832519 
C     2.0177019   -2.9569397    0.0432583 
C     2.2799735   -4.1539108   -0.6496667 
C     3.4411243   -4.8881032   -0.3661981 
H     5.2404125   -5.0282241    0.8372927 
H     4.8161039   -2.8627200    2.0251076 
H     2.7915148   -1.5200664    1.4672770 
H     1.5911053   -4.5107398   -1.4205114 
H     3.6413578   -5.8119797   -0.9183290 
