116
Energy =
C    -3.5748358    0.0066524   -0.4818280 
C    -2.9434372    0.9498209   -1.3306802 
C    -2.1836936    0.5786687   -2.4555426 
H    -3.0246621    2.0137526   -1.0793317 
Pd   -1.2606237   -0.1840794   -0.3972602 
P     1.0208819    0.2776003   -0.8770131 
P    -0.8746075   -1.3888338    1.6685217 
H    -3.7790534   -0.9839397   -0.9096726 
H    -2.2727963   -0.4614165   -2.8005624 
C    -6.3235947    1.2346719    2.6011220 
C    -6.4560203   -0.0173012    1.9817862 
C    -5.5551656   -0.4085375    0.9835819 
C    -4.4936711    0.4381008    0.5887581 
C    -4.3831527    1.7038347    1.2144350 
C    -5.2869476    2.0965745    2.2059219 
H    -7.0272875    1.5409755    3.3817081 
H    -7.2701662   -0.6896764    2.2714927 
H    -5.6774988   -1.3801956    0.4935978 
H    -3.5654113    2.3795591    0.9423230 
H    -5.1788427    3.0774036    2.6805340 
C    -0.8025554    3.2959853   -5.5017693 
C    -0.7369492    1.9078072   -5.6935075 
C    -1.1885176    1.0389723   -4.6938437 
C    -1.6984872    1.5307809   -3.4687718 
C    -1.7858518    2.9351051   -3.3061385 
C    -1.3437082    3.8032268   -4.3087946 
H    -0.4543630    3.9791914   -6.2829719 
H    -0.3437805    1.4995325   -6.6301794 
H    -1.1598740   -0.0400992   -4.8645237 
H    -2.2030160    3.3587939   -2.3881481 
H    -1.4251271    4.8851412   -4.1619681 
Fe    3.8169710   -0.2187855    1.3916689 
C     1.9751220    0.3688877    0.6869846 
C     1.8240087   -0.5889090    1.7708754 
C     2.5084148   -0.0604182    2.9241777 
C     3.0477021    1.2226281    2.5876492 
C     2.7426616    1.4838900    1.2138627 
C     5.0915061   -0.8844925   -0.0827926 
C     5.6470962    0.2436542    0.6039100 
C     5.7569467   -0.0971141    1.9943163 
C     5.2625163   -1.4343203    2.1658684 
C     4.8506857   -1.9221283    0.8814566 
C     0.9948159   -1.8466011    1.7277874 
H     2.6262640   -0.5588121    3.8867151 
H     3.6331568    1.8674015    3.2451437 
H     3.0483390    2.3765446    0.6716840 
H     4.9059635   -0.9459599   -1.1549875 
H     5.9295585    1.1959774    0.1515296 
H     6.1279557    0.5549843    2.7871208 
H     5.2031130   -1.9780137    3.1105618 
H     4.4471752   -2.9145546    0.6735848 
H     1.1021129   -2.2869528    0.7235679 
C     1.5046758   -2.8856711    2.7442700 
H     2.5989815   -2.9604531    2.6187924 
H     1.3044102   -2.6037292    3.7879230 
H     1.0768753   -3.8828757    2.5682003 
C    -1.7875188   -3.0865565    1.7865500 
C    -1.2729899   -0.2899306    3.1966705 
C    -1.7404516   -3.7222781    3.1949543 
H    -2.2147692   -4.7195957    3.1398353 
H    -0.7203918   -3.8629397    3.5774175 
H    -2.3091327   -3.1325609    3.9305101 
C    -2.7816476   -0.3409839    3.5135329 
H    -3.0095044    0.4544921    4.2457838 
H    -3.4020818   -0.1558642    2.6274793 
H    -3.0812227   -1.2990852    3.9664630 
C    -3.2639943   -2.9105934    1.3767221 
H    -3.7671356   -3.8925694    1.4458977 
H    -3.8101026   -2.2078433    2.0200072 
H    -3.3432555   -2.5659465    0.3346247 
C    -1.1520553   -4.0374141    0.7476862 
H    -1.7152198   -4.9883042    0.7505516 
H    -1.2215503   -3.6126843   -0.2682663 
H    -0.0976612   -4.2787286    0.9535964 
C    -0.4968325   -0.6798064    4.4712135 
H    -0.8212611   -0.0105401    5.2895147 
H    -0.7019165   -1.7133800    4.7903872 
H     0.5867772   -0.5477545    4.3529576 
C    -0.9034169    1.1565120    2.7848712 
H    -1.4827712    1.4754047    1.9007091 
H    -1.1449641    1.8393017    3.6203031 
H     0.1676651    1.2659527    2.5536227 
H     0.4942742    1.9569171   -2.4883507 
C     2.5668144    3.8966019   -2.5425015 
C     2.5469738    2.4299515   -2.0730032 
C     1.1363934    2.0107098   -1.5903031 
C     0.4697480    3.0194351   -0.6178816 
C     0.5895682    4.4781642   -1.0953648 
C     2.0368359    4.8435504   -1.4560775 
H     1.9373098    3.9948787   -3.4487758 
H     3.5956147    4.1708650   -2.8372770 
H     3.2989056    2.2905998   -1.2757775 
H     2.8589675    1.7790149   -2.9079301 
H    -0.5938317    2.7393486   -0.4947035 
H     0.9180577    2.9363497    0.3871328 
H    -0.0416145    4.6281218   -1.9892878 
H     0.1974217    5.1496863   -0.3102977 
H     2.6794844    4.7733909   -0.5550681 
H     2.0908624    5.8919530   -1.7993002 
H     3.0374866   -0.1681468   -2.0006320 
C     0.4851711   -1.8182016   -3.7481963 
C     1.5944002   -0.7798194   -3.5068505 
C     2.0973343   -0.7456368   -2.0459241 
C     2.3982956   -2.1672717   -1.5330165 
C     1.2523561   -3.1539823   -1.7751799 
C     0.8813728   -3.2180654   -3.2611815 
H     0.2272338   -1.8387474   -4.8222266 
H    -0.4251742   -1.5079176   -3.2007757 
H     1.2616691    0.2193961   -3.8388696 
H     2.4666895   -1.0393898   -4.1380481 
H     3.2995608   -2.5281900   -2.0664616 
H     2.6750196   -2.1144677   -0.4674050 
H     1.5207330   -4.1510827   -1.3829231 
H     0.3625896   -2.8152056   -1.2098343 
H     0.0523780   -3.9294440   -3.4260610 
H     1.7442913   -3.5919180   -3.8463881 
