124
Energy =
C    -0.1094551   -2.1041478   -2.1657880 
C     0.5412610   -1.0261013   -2.8161659 
C     1.8075897   -0.5555560   -2.3842035 
H     0.0211700   -0.4761332   -3.6103674 
Pd    0.2275573   -0.3517226   -0.7398191 
P     1.2462407    1.3737189    0.5180565 
P    -1.4927138   -0.7071368    0.8109994 
H     0.5324909   -2.7743001   -1.5756751 
H     2.4369553   -1.2573462   -1.8168521 
C    -3.7464012   -4.0119579   -3.4403858 
C    -3.3337020   -2.8238091   -4.0640153 
C    -2.1719775   -2.1709252   -3.6402108 
C    -1.3863797   -2.7004705   -2.5887377 
C    -1.8223709   -3.8941063   -1.9663840 
C    -2.9885155   -4.5415029   -2.3852425 
H    -4.6580349   -4.5206146   -3.7698548 
H    -3.9186644   -2.4058334   -4.8900160 
H    -1.8620224   -1.2554894   -4.1543751 
H    -1.2323405   -4.3203008   -1.1476256 
H    -3.3130459   -5.4575410   -1.8818534 
C     4.0015207    2.4153153   -4.5807471 
C     4.6669114    1.3560164   -3.9470499 
C     3.9457954    0.4270764   -3.1875285 
C     2.5391630    0.5146741   -3.0829167 
C     1.8834609    1.5905848   -3.7236180 
C     2.6077002    2.5352468   -4.4557063 
H     4.5659189    3.1489584   -5.1654022 
H     5.7532405    1.2565936   -4.0391766 
H     4.4705727   -0.3969496   -2.6909538 
H     0.7966568    1.6901625   -3.6446572 
H     2.0835015    3.3686504   -4.9343483 
Fe   -2.5656747    2.3310800   -0.3209070 
C    -2.1824199    0.9434373    1.1264499 
C    -1.3917028    2.1498509    1.3422081 
C    -2.3260740    3.2379924    1.4855531 
C    -3.6587545    2.7320007    1.3541625 
C    -3.5784701    1.3206450    1.1321042 
C    -2.3860704    1.5237828   -2.2069048 
C    -3.6959414    2.0754327   -2.0105606 
C    -3.5446932    3.4681876   -1.6986776 
C    -2.1422754    3.7749379   -1.7003011 
C    -1.4260550    2.5695487   -2.0120018 
C     0.0731281    2.2968810    1.6935111 
H    -2.0476752    4.2799398    1.6582088 
H    -4.5765100    3.3220329    1.3854582 
H    -4.4186462    0.6419769    0.9801928 
H    -2.1518284    0.4860016   -2.4502947 
H    -4.6418786    1.5339359   -2.0713580 
H    -4.3536538    4.1672993   -1.4794310 
H    -1.7045169    4.7533259   -1.4957155 
H    -0.3445057    2.4634855   -2.0889946 
H     0.3247264    3.3623033    1.5563285 
C     0.3137710    1.9410738    3.1810101 
H    -0.5198874    2.3407593    3.7837096 
H     0.3665656    0.8552203    3.3420240 
H     1.2485926    2.3851666    3.5513766 
C     4.4898087   -0.7218145    3.1617802 
C     3.5903402   -1.4350795    2.3478542 
C     2.6646994   -0.7477994    1.5615023 
C     2.5867918    0.6610472    1.5584922 
C     3.4956131    1.4042220    2.3633617 
C     4.4207410    0.6834690    3.1432058 
H     3.5993574   -2.5301136    2.3364735 
H     1.9646178   -1.3126570    0.9348086 
H     5.1160792    1.2514519    3.7738463 
C     3.3335649    4.8184944   -1.7724847 
C     1.9674396    4.9415994   -1.4675398 
C     1.3427493    3.8928596   -0.7669112 
C     2.0550393    2.7312794   -0.4174219 
C     3.4162920    2.6209133   -0.7660097 
C     4.0777475    3.6772224   -1.4126781 
H     3.8396547    5.6409285   -2.2922952 
H     0.2906176    3.9938361   -0.4828060 
H     3.9797470    1.7252525   -0.4848382 
C     5.5130656   -1.4418197    4.0089222 
H     6.4199264   -1.6633792    3.4147843 
H     5.8250587   -0.8341551    4.8744346 
H     5.1200971   -2.4041455    4.3782586 
C     3.5524175    2.9178076    2.4258279 
H     3.7175669    3.2546397    3.4635635 
H     4.3946208    3.2948073    1.8172782 
H     2.6455881    3.4051183    2.0392367 
C     1.1726716    6.1577724   -1.8896017 
H     0.5947361    5.9441063   -2.8089415 
H     0.4505684    6.4577246   -1.1102208 
H     1.8274454    7.0187768   -2.1014785 
C     5.5681845    3.6221785   -1.6602017 
H     5.9528237    2.5928294   -1.5820386 
H     5.8265523    4.0140376   -2.6583736 
H     6.1030192    4.2417189   -0.9155048 
C    -0.2456279   -2.2369778    5.0518724 
C    -1.1446213   -1.1945182    4.9056042 
C    -1.5270980   -0.7594133    3.6115744 
C    -1.0151680   -1.3671879    2.4678199 
H     0.0678339   -2.5635388    6.0493442 
H    -1.5572064   -0.6906573    5.7853627 
H    -2.2177292    0.0845314    3.5141152 
C    -0.1378414   -2.4997883    2.5928391 
C     0.2692213   -2.9201376    3.9117867 
C     1.1555180   -4.0309576    4.0432347 
C     1.6006435   -4.7263632    2.9312577 
C     1.1675519   -4.3403513    1.6345293 
C     0.3199635   -3.2561046    1.4747349 
H     1.4670948   -4.3360190    5.0482200 
H     2.2729180   -5.5824016    3.0485429 
H     1.5009644   -4.9069223    0.7584643 
H    -0.0185908   -2.9680457    0.4752935 
C    -3.2149214   -2.9249156    1.0677544 
C    -2.9416363   -1.7483055    0.3753339 
C    -3.7960580   -1.3549433   -0.6995287 
C    -4.9107083   -2.1032309   -1.0233608 
H    -2.5742551   -3.2517128    1.8920030 
H    -3.5736746   -0.4375706   -1.2421918 
H    -5.5621875   -1.7827749   -1.8431427 
C    -5.2170256   -3.3102609   -0.3289351 
C    -4.3379413   -3.7338364    0.7306760 
C    -4.6116222   -4.9576259    1.4102979 
C    -5.7038464   -5.7324607    1.0545953 
C    -6.5723754   -5.3122798    0.0102048 
C    -6.3359577   -4.1247814   -0.6647649 
H    -3.9417693   -5.2770191    2.2164549 
H    -5.9043433   -6.6722782    1.5792948 
H    -7.4330978   -5.9334776   -0.2585636 
H    -7.0032824   -3.8021543   -1.4715381 
