104
Energy =
C    -0.8807257    2.8784139    0.8338204 
C    -2.2286730    2.5258402    0.4762859 
C    -2.9436015    1.5644480    1.2049390 
H    -2.6762121    2.9652008   -0.4242652 
Pd   -0.8671981    0.7752798    0.1932722 
P    -1.1531347   -1.2966628   -0.9287358 
P     1.3258597    0.4576299    0.8900200 
H    -0.6193683    2.8405017    1.9004880 
H    -2.5017530    1.2436395    2.1610732 
C     1.5380267    5.5256384   -1.5581505 
C     1.7422403    5.4294785   -0.1735527 
C     0.9413040    4.5806407    0.5994412 
C    -0.0750769    3.7986754    0.0058769 
C    -0.2708251    3.9100130   -1.3928718 
C     0.5229572    4.7657982   -2.1631800 
H     2.1622138    6.1915585   -2.1626381 
H     2.5246667    6.0251195    0.3079478 
H     1.0880455    4.5296220    1.6827811 
H    -1.0370865    3.3007758   -1.8863602 
H     0.3547109    4.8369380   -3.2430815 
C    -7.0104793    0.2786099    0.7374918 
C    -6.4463703    1.1400687   -0.2201111 
C    -5.1257192    1.5761938   -0.0873360 
C    -4.3317501    1.1487577    1.0051281 
C    -4.9202939    0.2913117    1.9676444 
C    -6.2444749   -0.1386662    1.8367634 
H    -8.0470428   -0.0567420    0.6300002 
H    -7.0461883    1.4785216   -1.0711742 
H    -4.7097621    2.2558356   -0.8370677 
H    -4.3203531   -0.0415709    2.8222881 
H    -6.6809801   -0.7997711    2.5922622 
Fe    3.3539271   -2.3805247    0.1947971 
C     1.7886673   -1.3026650    0.9091370 
C     1.3408895   -2.2801192   -0.0720770 
C     1.7291780   -3.5801014    0.4141543 
C     2.4080438   -3.4177711    1.6680103 
C     2.4589855   -2.0191038    1.9743806 
C     4.2760276   -2.4396768   -1.6428582 
C     4.5936730   -1.2198101   -0.9638938 
C     5.2203061   -1.5558515    0.2839421 
C     5.2897890   -2.9873186    0.3723747 
C     4.7007210   -3.5344874   -0.8172841 
C     1.2938950    0.9186571    2.6688117 
C     1.8270271    2.1327953    3.1473857 
C     1.6429947    2.5058025    4.4878260 
C     0.9226206    1.6790767    5.3612010 
C     0.3837691    0.4706522    4.8896544 
C     0.5623477    0.0932355    3.5534246 
C     2.6755128    1.4033342    0.1021914 
C     2.4677547    1.8874741   -1.2026401 
C     3.4942213    2.5661868   -1.8741106 
C     4.7289568    2.7711634   -1.2414797 
C     4.9413294    2.2887219    0.0610405 
C     3.9219792    1.6018492    0.7321357 
C     0.5909850   -1.9654106   -1.3428429 
H     1.5734580   -4.5295386   -0.1000138 
H     2.8477116   -4.2191274    2.2645299 
H     2.9102066   -1.5652542    2.8578640 
H     3.7988649   -2.5177868   -2.6211250 
H     4.3904551   -0.2137250   -1.3315410 
H     5.5791083   -0.8501367    1.0339242 
H     5.6956206   -3.5605143    1.2080115 
H     4.5823322   -4.5956331   -1.0445374 
H     2.3860702    2.7900278    2.4760154 
H     0.1353871   -0.8477465    3.1927728 
H     1.4956473    1.7404075   -1.6836761 
H     4.0987270    1.2099643    1.7389975 
H     1.0537703   -1.0532949   -1.7630494 
C     0.7232174   -3.0877137   -2.3890882 
H     1.7850600   -3.3776503   -2.4486323 
H     0.1450327   -3.9857983   -2.1324903 
H     0.4099437   -2.7521376   -3.3885101 
H     2.0689068    3.4478926    4.8485845 
H    -0.1778374   -0.1820014    5.5662403 
H     3.3223518    2.9463379   -2.8857081 
H     5.9081317    2.4418818    0.5516742 
C    -1.9407648   -0.8970384   -2.6376203 
C    -2.1230801   -2.6320349    0.0382633 
C    -3.1285388    0.0654523   -2.4111852 
H    -3.5409960    0.3634810   -3.3927973 
H    -3.9437752   -0.3836379   -1.8269237 
H    -2.7962275    0.9793433   -1.8885371 
C    -3.6307191   -2.3173943   -0.0435817 
H    -4.1662392   -2.9568149    0.6817074 
H    -3.8460577   -1.2704260    0.2189648 
H    -4.0501626   -2.5278485   -1.0403211 
C    -0.8703759   -0.1172904   -3.4412115 
H    -1.3394121    0.2955025   -4.3526736 
H    -0.4727776    0.7319223   -2.8534683 
H    -0.0257922   -0.7472960   -3.7627256 
C    -2.4269335   -2.1270954   -3.4322188 
H    -2.7978679   -1.7891049   -4.4177394 
H    -1.6318086   -2.8650597   -3.6130344 
H    -3.2624852   -2.6361215   -2.9258327 
C    -1.8691015   -4.0773964   -0.4334292 
H    -2.5117655   -4.7578422    0.1554204 
H    -2.1181892   -4.2236898   -1.4967008 
H    -0.8254191   -4.3838487   -0.2628325 
C    -1.6754452   -2.4868502    1.5138871 
H    -2.2230648   -3.2243103    2.1294730 
H    -0.5961917   -2.6724737    1.6409912 
H    -1.9071209   -1.4774067    1.8975060 
H     0.7822579    1.9728820    6.4063712 
H     5.5293315    3.3067378   -1.7622735 
