112
Energy =
C     2.8873085   -1.6688468   -1.4337770 
C     2.9951762   -0.2902099   -1.7569759 
C     3.1737001    0.6911757   -0.7494535 
H     2.7993041    0.0334843   -2.7864726 
Pd    1.2382177   -0.4733222   -0.4374233 
P    -0.1254019    1.2407154    0.4170032 
P    -0.2806133   -2.2009826   -0.1147165 
H     3.3451181   -2.0022400   -0.4912801 
H     3.6257853    0.3532724    0.1951266 
C     2.2479421   -4.8567000   -4.2592867 
C     2.0423246   -3.5246953   -4.6564031 
C     2.2328324   -2.4789932   -3.7475008 
C     2.6556168   -2.7384155   -2.4216488 
C     2.8667673   -4.0839327   -2.0391525 
C     2.6578587   -5.1310372   -2.9451109 
H     2.0927594   -5.6740192   -4.9710175 
H     1.7202498   -3.3006917   -5.6785702 
H     2.0387225   -1.4521407   -4.0729845 
H     3.1912541   -4.3074972   -1.0175212 
H     2.8215503   -6.1646307   -2.6234539 
C     3.3904836    4.9572321   -1.2994694 
C     3.8801969    4.3547861   -0.1303005 
C     3.8168324    2.9648705    0.0220935 
C     3.2567252    2.1432078   -0.9837177 
C     2.7892586    2.7643341   -2.1667322 
C     2.8553874    4.1538372   -2.3200001 
H     3.4370019    6.0440302   -1.4218555 
H     4.3168957    4.9691914    0.6639199 
H     4.2060834    2.4995352    0.9341496 
H     2.3664958    2.1593802   -2.9759608 
H     2.4876552    4.6142654   -3.2428278 
Fe   -2.7908388    0.4937276    2.8544888 
C    -1.7449702    0.7463398    1.1025165 
C    -2.2278637   -0.6228128    1.2667158 
C    -3.6671422   -0.5655168    1.3688994 
C    -4.0792047    0.8047095    1.3079133 
C    -2.9087616    1.6133525    1.1656856 
C    -2.1830377   -0.5172092    4.5289169 
C    -1.6476365    0.8122052    4.5358807 
C    -2.7423111    1.7397505    4.4839957 
C    -3.9589918    0.9798934    4.4514393 
C    -3.6138742   -0.4145027    4.4811437 
C    -1.4022536   -1.8862261    1.3738005 
H    -4.3330430   -1.4168487    1.5142284 
H    -5.1040676    1.1689757    1.3982797 
H    -2.8946532    2.7011047    1.1000822 
H    -1.6043528   -1.4427874    4.5578891 
H    -0.5907224    1.0733076    4.5767299 
H    -2.6661520    2.8283809    4.4753826 
H    -4.9697385    1.3880364    4.3955739 
H    -4.3182729   -1.2480184    4.4511663 
H    -0.6319818   -1.7182701    2.1499002 
C    -2.2366833   -3.1193353    1.7549249 
H    -2.8110343   -2.9051767    2.6724563 
H    -2.9468078   -3.3890869    0.9550512 
H    -1.5901987   -3.9890458    1.9497374 
H     0.4684280    2.2054432   -1.6446353 
C    -1.1795074    4.2261091   -2.4920276 
C    -1.0176774    3.6316276   -1.0781675 
C    -0.5297457    2.1717611   -1.1659811 
C    -1.4527068    1.3074140   -2.0536889 
C    -1.6175252    1.9245329   -3.4527434 
C    -2.1136586    3.3765367   -3.3680865 
H    -0.1819682    4.2855318   -2.9693919 
H    -1.5542589    5.2624599   -2.4136687 
H    -1.9889405    3.6803249   -0.5527514 
H    -0.2974080    4.2413599   -0.5059221 
H    -1.0463319    0.2822770   -2.1361458 
H    -2.4441633    1.2179860   -1.5704526 
H    -0.6412271    1.8997560   -3.9772446 
H    -2.3122868    1.3059598   -4.0491036 
H    -3.1333080    3.3884668   -2.9343834 
H    -2.1952779    3.8157996   -4.3783777 
H     1.3934220    2.9990941    0.9218545 
C     2.3161043    2.5841347    3.5666361 
C     1.5717590    1.6441952    2.6015054 
C     0.7124200    2.4299212    1.5842752 
C    -0.2414404    3.4109660    2.2979035 
C     0.5288795    4.3468494    3.2475139 
C     1.3594455    3.5588705    4.2715750 
H     3.0618489    3.1678379    2.9928816 
H     2.8809052    1.9876888    4.3057629 
H     0.9141354    0.9611000    3.1726413 
H     2.2891460    1.0001866    2.0612600 
H    -0.8043243    4.0097936    1.5641265 
H    -0.9847968    2.8232415    2.8622821 
H     1.2011346    4.9950146    2.6514202 
H    -0.1839539    5.0179225    3.7601716 
H     0.6794174    2.9946940    4.9398969 
H     1.9288553    4.2493754    4.9187438 
C    -2.8102871   -3.0739197   -3.9108231 
C    -1.5340287   -3.6365926   -3.7637684 
C    -0.7899305   -3.4101986   -2.5987256 
C    -1.3226901   -2.6182145   -1.5571319 
C    -2.6051686   -2.0472612   -1.7148016 
C    -3.3421739   -2.2798181   -2.8834310 
H    -3.3890059   -3.2525227   -4.8229310 
H    -1.1043001   -4.2545905   -4.5586717 
H     0.2031588   -3.8555696   -2.5026232 
H    -3.0280435   -1.4117107   -0.9332204 
H    -4.3372979   -1.8354838   -2.9896783 
C     1.9804220   -5.9783601    1.3893225 
C     2.3594313   -4.6886210    1.7955273 
C     1.6682028   -3.5718641    1.3087194 
C     0.5839420   -3.7319787    0.4190806 
C     0.1908680   -5.0302195    0.0387844 
C     0.8956032   -6.1451089    0.5157708 
H     2.5277897   -6.8519991    1.7577859 
H     3.1988672   -4.5528689    2.4852467 
H     1.9754419   -2.5627532    1.6128861 
H    -0.6621669   -5.1748655   -0.6307218 
H     0.5910778   -7.1496213    0.2042471 
