106
Energy =
C    -1.4507170   -1.5436790   -1.9972580 
C    -0.2474826   -1.8104905   -2.7046374 
C     0.7738356   -2.6157766   -2.1336119 
H    -0.0370290   -1.2508823   -3.6236302 
Pd    0.3332502   -0.8451727   -0.8107217 
P     2.3478866   -0.7987798    0.3121093 
P    -0.6442104    0.9663559    0.2828978 
H    -1.7541789   -2.2883535   -1.2460001 
H     0.4726211   -3.3479678   -1.3697540 
C    -4.7182858    0.8993461   -3.3562972 
C    -3.4761266    0.9789391   -4.0071614 
C    -2.3953386    0.2121440   -3.5634373 
C    -2.5376510   -0.6667665   -2.4647738 
C    -3.7863107   -0.7170482   -1.8036071 
C    -4.8656459    0.0580021   -2.2441060 
H    -5.5633741    1.4981232   -3.7105661 
H    -3.3485269    1.6481538   -4.8637776 
H    -1.4335582    0.3006667   -4.0777790 
H    -3.9103144   -1.3803072   -0.9408732 
H    -5.8271281   -0.0044183   -1.7238973 
C     4.7131347   -3.2859882   -3.7352889 
C     3.8520437   -2.3767444   -4.3715926 
C     2.5651412   -2.1556907   -3.8728853 
C     2.1041497   -2.8449368   -2.7271618 
C     2.9742897   -3.7730921   -2.1117414 
C     4.2665881   -3.9858285   -2.6052615 
H     5.7228989   -3.4516845   -4.1244114 
H     4.1892294   -1.8341738   -5.2609359 
H     1.9163661   -1.4342736   -4.3806416 
H     2.6307496   -4.3334507   -1.2358871 
H     4.9245892   -4.7046471   -2.1060515 
Fe    1.5619298   -0.0647994    3.5630933 
C     2.4511613    0.2470156    1.7822778 
C     1.5828903    1.3718796    2.1113303 
C     2.0609314    1.8994998    3.3675265 
C     3.1924986    1.1346185    3.7983618 
C     3.4379129    0.1117800    2.8300660 
C     1.4196292   -2.0048387    4.1629861 
C     1.5593830   -1.1340443    5.2958111 
C     0.4638766   -0.2058837    5.2813533 
C    -0.3570698   -0.5033843    4.1440944 
C     0.2343231   -1.6138236    3.4507073 
C     0.5875985    2.0720880    1.2094397 
H     1.6269220    2.7371494    3.9141256 
H     3.7459659    1.2823566    4.7273955 
H     4.2116236   -0.6558286    2.8773955 
H     2.1043934   -2.8076466    3.8830544 
H     2.3729709   -1.1536285    6.0233013 
H     0.2977070    0.5997760    5.9989076 
H    -1.2637519    0.0280250    3.8557860 
H    -0.1331564   -2.0774826    2.5358121 
H     1.1701775    2.4455108    0.3424591 
C    -0.0725316    3.2878837    1.8788325 
H     0.6972474    4.0370338    2.1301814 
H    -0.7964888    3.7687768    1.1999047 
H    -0.5862754    2.9983386    2.8098995 
C     3.7261263   -0.2754953   -0.7283757 
C     3.7464840    0.3198306   -1.9718776 
C     5.1198725    0.5861717   -2.2759584 
C     5.8418486    0.1382607   -1.1978615 
H     2.8740158    0.5240686   -2.5921316 
H     5.5216357    1.0442558   -3.1795948 
H     6.9050932    0.1164693   -0.9619196 
O     5.0135886   -0.3808206   -0.2467628 
C     2.8314762   -2.4486547    0.8898707 
C     4.0288897   -3.0721605    1.1696024 
C     3.7077402   -4.4024749    1.5933049 
C     2.3391453   -4.5040610    1.5402028 
H     5.0161580   -2.6245080    1.0630622 
H     4.4039733   -5.1859645    1.8936658 
H     1.6320527   -5.3016407    1.7637314 
O     1.7917915   -3.3282091    1.1118958 
C    -2.0024171    3.9665400   -2.9720959 
C    -2.9543382    3.5640698   -2.0202413 
C    -2.5690252    2.6404432   -1.0280032 
C    -1.2550766    2.1496272   -0.9827913 
C    -0.3251402    2.5515165   -1.9670787 
C    -0.6852119    3.4648349   -2.9702258 
H    -2.2980395    4.6798242   -3.7513048 
H    -3.3129567    2.2937971   -0.3053304 
H     0.6922925    2.1381443   -1.9587020 
C    -4.1647398   -0.3383272    2.9926135 
C    -3.4087631   -1.2995554    2.2953378 
C    -2.3620996   -0.8482328    1.4744495 
C    -2.0571183    0.5218382    1.3589008 
C    -2.8370509    1.4611601    2.0642196 
C    -3.9002794    1.0402169    2.8865705 
H    -4.9859002   -0.6726520    3.6377960 
H    -1.7527602   -1.5747848    0.9252292 
H    -2.6357326    2.5312341    1.9745804 
C    -4.3606750    4.1189472   -2.0437893 
H    -4.4078350    5.0844393   -1.5056103 
H    -4.7041074    4.3013914   -3.0759174 
H    -5.0709915    3.4293190   -1.5585624 
C     0.3021998    3.8883401   -4.0352410 
H     1.2997860    3.4522961   -3.8601200 
H    -0.0386445    3.5711230   -5.0379312 
H     0.4096835    4.9872632   -4.0631724 
C    -3.6733809   -2.7789981    2.4587311 
H    -4.7155727   -2.9757540    2.7589128 
H    -3.4698468   -3.3310871    1.5249712 
H    -3.0148000   -3.2004762    3.2417493 
C    -4.7372094    2.0607037    3.6266907 
H    -4.1033114    2.7209140    4.2449442 
H    -5.2860631    2.7071103    2.9176117 
H    -5.4755306    1.5777560    4.2865929 
