112
Energy =
C     1.5383833   -3.0686256    0.4713649 
C     2.0741935   -2.6431821   -0.7728839 
C     2.9913897   -1.5665615   -0.8572896 
H     1.6742609   -3.0725989   -1.6990798 
Pd    1.0093602   -0.8879835    0.0333010 
P     1.0371574    1.2433956   -0.9313381 
P    -0.9575119   -0.4984719    1.2600157 
H     2.1428311   -2.8548195    1.3650767 
H     3.5489454   -1.3146250    0.0575072 
C    -1.2613061   -6.3028357    1.0134386 
C    -1.0994643   -5.7284653   -0.2584650 
C    -0.1939078   -4.6807078   -0.4516081 
C     0.5745689   -4.1760203    0.6238422 
C     0.4229424   -4.7878803    1.8891750 
C    -0.4880087   -5.8328672    2.0853259 
H    -1.9738010   -7.1205038    1.1625344 
H    -1.6853049   -6.0999389   -1.1058243 
H    -0.0948050   -4.2448361   -1.4507584 
H     1.0420793   -4.4474929    2.7253011 
H    -0.5851164   -6.2891800    3.0760514 
C     4.9535423   -0.2181554   -4.4415554 
C     5.3362084    0.2750157   -3.1853679 
C     4.6733024   -0.1572672   -2.0305224 
C     3.6086175   -1.0851887   -2.1058013 
C     3.2177954   -1.5521546   -3.3826123 
C     3.8898492   -1.1310183   -4.5332848 
H     5.4792255    0.1068122   -5.3453321 
H     6.1624604    0.9885843   -3.1015690 
H     4.9903607    0.2181625   -1.0521614 
H     2.3843909   -2.2538537   -3.4831377 
H     3.5774111   -1.5121386   -5.5105569 
Fe   -1.0460004    4.0628463    0.0046163 
C    -0.4883028    2.2148977   -0.6640946 
C    -1.3624761    2.1152965    0.4979169 
C    -2.6017754    2.7655328    0.1561803 
C    -2.5037852    3.2755199   -1.1802318 
C    -1.2047735    2.9500011   -1.6864559 
C    -1.1892943    6.0640271   -0.3686732 
C    -1.7413062    5.7522045    0.9184320 
C    -0.7067655    5.1533564    1.7105712 
C     0.4834337    5.0831725    0.9127023 
C     0.1846254    5.6529288   -0.3726295 
C     1.0166884    1.0334237   -2.7572841 
C     1.9738544    1.5709733   -3.6349348 
C     1.8493948    1.3662027   -5.0180348 
C     0.7862474    0.6135132   -5.5327791 
C    -0.1563617    0.0481546   -4.6574346 
C    -0.0422033    0.2549528   -3.2786947 
C     2.4685312    2.3037287   -0.5037356 
C     3.3504172    1.8962581    0.5157551 
C     4.4274815    2.7131482    0.8899263 
C     4.6360736    3.9381564    0.2393198 
C     3.7603612    4.3506996   -0.7786221 
C     2.6762175    3.5426784   -1.1435354 
C    -1.1049071    1.3208235    1.7514918 
H    -3.4581625    2.8787864    0.8243307 
H    -3.2687777    3.8508165   -1.7048899 
H    -0.8180781    3.1900724   -2.6781845 
H    -1.7273012    6.5132550   -1.2054731 
H    -2.7731426    5.9206185    1.2323445 
H    -0.8176666    4.8100384    2.7403307 
H     1.4431818    4.6648000    1.2202448 
H     0.8760272    5.7648811   -1.2076328 
H     2.8324476    2.1269620   -3.2504515 
H    -0.7835511   -0.1813139   -2.5992964 
H     3.1863083    0.9364933    1.0193145 
H     1.9809660    3.8774098   -1.9187711 
H     2.6025321    1.7876502   -5.6913197 
H    -0.9841413   -0.5517483   -5.0500917 
H     5.1041019    2.3915990    1.6883491 
H     3.9182751    5.3097987   -1.2827567 
H     0.6956528    0.4567722   -6.6126006 
H     5.4783511    4.5754412    0.5275948 
H    -2.0017505    1.4021839    2.3891755 
C     0.1282895    1.7654400    2.5551880 
H     0.0134314    2.8168492    2.8576198 
H     0.2623894    1.1549338    3.4628997 
H     1.0477107    1.6882573    1.9520342 
H    -1.6113244   -2.4629193    2.4374923 
H    -2.2482456    0.0448882   -0.6344563 
C    -2.5744028   -1.8600651    4.9680033 
C    -2.3149220   -0.9031664    3.7880058 
C    -1.2505672   -1.4893352    2.8287641 
C     0.0553012   -1.7547439    3.6135344 
C    -0.1970757   -2.7093865    4.7950245 
C    -1.2807932   -2.1645842    5.7388953 
H    -3.0058315   -2.8034513    4.5795695 
H    -3.3319557   -1.4176484    5.6395235 
H    -1.9442969    0.0601177    4.1890895 
H    -3.2589103   -0.6892991    3.2632618 
H     0.8266976   -2.1588999    2.9391986 
H     0.4518215   -0.7981323    4.0027107 
H    -0.5219458   -3.6913493    4.4005933 
H     0.7471536   -2.8808588    5.3429004 
H    -0.9156086   -1.2357056    6.2200121 
H    -1.4781320   -2.8850308    6.5524071 
C    -4.8744166   -0.6999472   -0.4343123 
C    -3.8228125   -0.6013306    0.6877012 
C    -2.4056772   -0.7676849    0.1036038 
C    -2.2733814   -2.1088021   -0.6443208 
C    -3.3381382   -2.2344311   -1.7478023 
C    -4.7576668   -2.0326680   -1.1925016 
H    -4.7291906    0.1435842   -1.1379401 
H    -5.8863481   -0.5866991   -0.0058557 
H    -4.0113714   -1.4028196    1.4267799 
H    -3.9211044    0.3627750    1.2165083 
H    -1.2594601   -2.1870048   -1.0780553 
H    -2.3737871   -2.9490887    0.0680977 
H    -3.1389015   -1.4719007   -2.5277643 
H    -3.2492235   -3.2208469   -2.2382017 
H    -4.9988131   -2.8648053   -0.5019556 
H    -5.4991873   -2.0758511   -2.0100273 
