124
Energy =
C     1.6922248    2.3448795    1.3626457 
C     2.3866815    2.1464601    0.1418248 
C     1.7443048    2.3819407   -1.1069306 
H     3.3852563    1.6904982    0.1511563 
Pd    0.6694770    0.7979764    0.0542584 
P    -0.4372806   -0.1760796   -1.7615623 
P    -0.1730111   -0.7103858    1.6869512 
H     0.8351879    3.0351850    1.3378479 
H     0.9495691    3.1424248   -1.1243777 
C     3.4198147    1.9243175    5.2747202 
C     2.3068077    2.7512060    5.0655665 
C     1.7309921    2.8448032    3.7935031 
C     2.2735013    2.1357967    2.6978646 
C     3.3854055    1.2920639    2.9274779 
C     3.9482833    1.1850916    4.2025898 
H     3.8708795    1.8492074    6.2693775 
H     1.8827254    3.3238643    5.8965478 
H     0.8597813    3.4904259    3.6361984 
H     3.8130032    0.7101705    2.1058445 
H     4.8085315    0.5265310    4.3613151 
C     3.6338426    1.7350982   -4.9176218 
C     3.8816724    0.8455677   -3.8585500 
C     3.2657319    1.0407135   -2.6184467 
C     2.3875826    2.1289444   -2.4114798 
C     2.1350253    3.0048015   -3.4887189 
C     2.7579314    2.8133894   -4.7283161 
H     4.1160970    1.5808406   -5.8884045 
H     4.5539551   -0.0065865   -4.0035781 
H     3.4517777    0.3324984   -1.8031896 
H     1.4470386    3.8454707   -3.3504740 
H     2.5468576    3.5042916   -5.5507332 
Fe   -3.1316412    1.1413475   -0.0898158 
C    -2.1603103   -0.2986726   -1.1814020 
C    -2.5399539   -0.8266775    0.1219198 
C    -3.9697793   -0.6961345    0.2268189 
C    -4.4743847   -0.1058155   -0.9756932 
C    -3.3653902    0.1475847   -1.8443583 
C    -2.0932000    2.9230581   -0.0413346 
C    -3.3861858    3.0977782   -0.6376155 
C    -4.3714812    2.7053007    0.3281385 
C    -3.6864574    2.2859139    1.5162156 
C    -2.2749910    2.4190098    1.2883607 
C    -1.7110451   -1.6464968    1.0883977 
H    -4.5633056   -1.0054029    1.0900167 
H    -5.5174891    0.1389112   -1.1836938 
H    -3.4151663    0.6062883   -2.8331988 
H    -1.1343499    3.1375432   -0.5144320 
H    -3.5917993    3.4516316   -1.6495263 
H    -5.4524695    2.7068192    0.1779459 
H    -4.1623708    1.9319943    2.4309517 
H    -1.4844070    2.1944978    2.0047754 
H    -2.3270522   -1.7870559    1.9923370 
C    -1.3998000   -3.0437023    0.5059272 
H    -0.6496570   -2.9983257   -0.2953228 
H    -1.0256083   -3.7257311    1.2839724 
H    -2.3260029   -3.4685271    0.0824749 
C     3.3210986   -3.7071897    2.5745814 
C     3.4561888   -2.6241318    1.6876002 
C     2.3755525   -1.7686405    1.4582414 
C     1.1303617   -1.9504710    2.0930516 
C     0.9823786   -3.0195632    3.0215895 
C     2.0830259   -3.8725916    3.2242828 
H     4.4095476   -2.4476296    1.1767416 
H     2.4865276   -0.9171104    0.7745207 
H     1.9684350   -4.7034370    3.9316585 
C    -1.5178873    0.5347276    5.9504070 
C    -0.1613119    0.2389472    5.7158428 
C     0.2470465   -0.0620276    4.4037000 
C    -0.6949238   -0.1222342    3.3563226 
C    -2.0449414    0.1746666    3.6220359 
C    -2.4708778    0.5209087    4.9171658 
H    -1.8431503    0.7658929    6.9722120 
H     1.2986381   -0.3006171    4.2115905 
H    -2.7795165    0.1321445    2.8123860 
C     4.4554735   -4.6745747    2.8206190 
H     4.5622611   -4.9019727    3.8953850 
H     4.2657228   -5.6336652    2.3031711 
H     5.4151075   -4.2776512    2.4512917 
C    -0.2641304   -3.2695087    3.8454916 
H    -0.4629426   -4.3511111    3.9321767 
H    -0.1268011   -2.8706799    4.8672311 
H    -1.1609272   -2.7814395    3.4391304 
C     0.8187159    0.2065653    6.8675310 
H     0.4678615   -0.4814502    7.6576742 
H     1.8171919   -0.1208728    6.5388802 
H     0.9239402    1.2046686    7.3294120 
C    -3.9183036    0.8714824    5.1852762 
H    -4.5949748    0.3659641    4.4750790 
H    -4.2204226    0.5896460    6.2076885 
H    -4.0814981    1.9614717    5.0845234 
C     1.2542075   -4.4016496   -2.7772963 
C     1.9753979   -3.4765710   -2.0438550 
C     1.4211948   -2.1981688   -1.7918545 
C     0.1625652   -1.8400979   -2.2678439 
H     1.6611330   -5.4018201   -2.9627685 
H     2.9599589   -3.7276182   -1.6372723 
H     1.9780014   -1.4783617   -1.1872348 
C    -0.5895007   -2.7648464   -3.0783443 
C    -0.0259993   -4.0747732   -3.3156302 
C    -0.7587845   -5.0176297   -4.0952320 
C    -1.9893180   -4.6895950   -4.6385868 
C    -2.5324961   -3.3962642   -4.4271887 
C    -1.8503426   -2.4593143   -3.6665273 
H    -0.3242072   -6.0091311   -4.2632634 
H    -2.5403974   -5.4213388   -5.2379688 
H    -3.4978010   -3.1335483   -4.8721561 
H    -2.2802489   -1.4662078   -3.5271979 
C    -1.1490032    2.0023253   -3.3770139 
C    -0.5075064    0.7679351   -3.3336458 
C     0.1637616    0.2818635   -4.4954945 
C     0.1485325    1.0176879   -5.6666070 
H    -1.6558099    2.3791128   -2.4867767 
H     0.6960409   -0.6723508   -4.4594458 
H     0.6686189    0.6376168   -6.5523072 
C    -0.5161604    2.2757669   -5.7449317 
C    -1.1758919    2.7812900   -4.5669651 
C    -1.8204544    4.0530789   -4.6255770 
C    -1.8138451    4.7941030   -5.7956735 
C    -1.1647243    4.2941812   -6.9582309 
C    -0.5309463    3.0619431   -6.9334098 
H    -2.3166058    4.4394687   -3.7278345 
H    -2.3090457    5.7699771   -5.8305315 
H    -1.1683797    4.8904440   -7.8765390 
H    -0.0297589    2.6774332   -7.8284519 
