112
Energy =
C     2.1415088    2.2636496    0.6261379 
C     0.9531509    2.9533502    0.9924557 
C     0.2503085    2.6466429    2.1757541 
H     0.5437648    3.6966920    0.2968838 
Pd    0.4040414    0.8282135    0.6392200 
P    -1.5345084   -0.4957971    0.9509356 
P     1.4520609   -0.6219637   -0.8575842 
H     2.7081089    1.7761111    1.4339710 
H     0.7923673    2.0712702    2.9382389 
C     4.5436345    3.4049147   -2.7590969 
C     5.1445591    2.9950670   -1.5600334 
C     4.3518167    2.6036509   -0.4732643 
C     2.9425336    2.6403406   -0.5562142 
C     2.3515441    3.0763977   -1.7636969 
C     3.1420514    3.4429098   -2.8568890 
H     5.1624657    3.6973826   -3.6136725 
H     6.2357637    2.9686624   -1.4724116 
H     4.8262319    2.2656946    0.4540245 
H     1.2615002    3.1055787   -1.8537406 
H     2.6636992    3.7559163   -3.7906181 
C    -3.0971859    4.8297071    3.7671483 
C    -2.3736107    3.9350709    4.5701477 
C    -1.2854223    3.2358655    4.0359103 
C    -0.9055910    3.3992194    2.6820721 
C    -1.6381672    4.3153326    1.8895349 
C    -2.7152821    5.0247337    2.4289032 
H    -3.9459320    5.3820231    4.1828538 
H    -2.6520078    3.7892720    5.6188822 
H    -0.7118104    2.5548230    4.6741816 
H    -1.3729069    4.4678497    0.8384694 
H    -3.2665364    5.7327865    1.8016940 
Fe    0.1473499   -3.6902694   -2.1537236 
C     0.8410679   -2.3382244   -0.7978723 
C    -0.5272645   -2.7308966   -0.4993888 
C    -0.5248261   -4.1591197   -0.3007280 
C     0.8105047   -4.6474810   -0.4828663 
C     1.6544006   -3.5369732   -0.8035173 
C    -1.3391491   -3.6452400   -3.5673146 
C    -0.2371194   -2.8260088   -3.9744123 
C     0.9337198   -3.6572258   -4.0397614 
C     0.5505356   -4.9904909   -3.6724897 
C    -0.8540346   -4.9827470   -3.3761395 
C     3.2276469   -0.8239597   -0.4394305 
C     3.5102932   -1.4387219    0.8032440 
C     4.8321077   -1.6066489    1.2269853 
C     5.8926011   -1.1600593    0.4190466 
C     5.6179748   -0.5283039   -0.7993951 
C     4.2918576   -0.3457461   -1.2255079 
C     1.2925042   -0.0580030   -2.5939652 
C     0.2291337    0.8126904   -2.9038939 
C     0.0123924    1.2264358   -4.2256595 
C     0.8702704    0.7879672   -5.2456866 
C     1.9284495   -0.0845836   -4.9438901 
C     2.1321256   -0.5192710   -3.6276994 
C    -1.7165494   -1.8045407   -0.4220558 
H    -1.3961616   -4.7787947   -0.0849208 
H     1.1210457   -5.6923733   -0.4296608 
H     2.7264395   -3.5730096   -1.0005875 
H    -2.3672734   -3.3073677   -3.4253293 
H    -0.2822190   -1.7581464   -4.1904538 
H     1.9373803   -3.3374896   -4.3209018 
H     1.2147898   -5.8539529   -3.6041519 
H    -1.4436371   -5.8388257   -3.0426279 
H     2.6890536   -1.7949187    1.4343734 
H     4.0998414    0.1896758   -2.1582376 
H    -0.4228348    1.1693768   -2.0971593 
H     2.9335795   -1.2310458   -3.4108918 
H    -1.6873475   -1.1689221   -1.3272774 
C    -3.0533845   -2.5690925   -0.4068395 
H    -3.0318159   -3.3449237   -1.1900984 
H    -3.2392633   -3.0690766    0.5583768 
H    -3.9063616   -1.9073441   -0.6209725 
H     5.0364099   -2.0901913    2.1878907 
H     6.4357780   -0.1545247   -1.4239121 
H    -0.8202925    1.8988929   -4.4568714 
H     2.5899431   -0.4399728   -5.7406416 
H     6.9281584   -1.2982296    0.7464140 
H     0.7106032    1.1181118   -6.2772352 
H    -3.9082860   -0.3394563    0.5389169 
C    -4.4116150    2.0054903   -0.8427603 
C    -3.0600000    1.3314511   -0.5450833 
C    -3.1475964    0.4441546    0.7164177 
C    -3.6184093    1.2660076    1.9322213 
C    -4.9690960    1.9463584    1.6336700 
C    -4.9114822    2.8123072    0.3649583 
H    -5.1530319    1.2233018   -1.0997787 
H    -4.3171423    2.6544905   -1.7322974 
H    -2.2797677    2.1017800   -0.3777063 
H    -2.7393665    0.7368903   -1.4205744 
H    -3.7245190    0.6226134    2.8226233 
H    -2.8660213    2.0323542    2.1744662 
H    -5.7494207    1.1688347    1.5125147 
H    -5.2636036    2.5605453    2.5034481 
H    -4.2252556    3.6615046    0.5396665 
H    -5.9054879    3.2444581    0.1517878 
H    -2.8593328   -1.3773997    2.7416860 
C     0.3819350   -0.5919272    3.8168740 
C    -1.1503290   -0.4758328    3.7420545 
C    -1.7602047   -1.3548106    2.6212482 
C    -1.2389396   -2.8034284    2.7470299 
C     0.2910195   -2.9017982    2.8182035 
C     0.8496368   -2.0461103    3.9645561 
H     0.7642308    0.0348941    4.6432559 
H     0.8176697   -0.1803955    2.8780299 
H    -1.4492633    0.5778863    3.6103008 
H    -1.5881570   -0.8082642    4.7033483 
H    -1.6654005   -3.2057900    3.6873142 
H    -1.6307754   -3.4383457    1.9380814 
H     0.5905256   -3.9584864    2.9309641 
H     0.7204907   -2.5600196    1.8569708 
H     1.9540662   -2.0919168    3.9809933 
H     0.5023550   -2.4531420    4.9342391 
