110
Energy =
C     0.4832954    0.4167657   -2.9824498 
C    -0.9083178    0.1428824   -2.9186734 
C    -1.7881009    1.0331954   -2.2644012 
H    -1.2951750   -0.7989533   -3.3256839 
Pd   -0.1711228    0.1219350   -0.8145594 
P    -1.4657548    0.2446549    1.1640777 
P     1.9520263   -0.3586830    0.0939356 
H     0.7666349    1.4695963   -2.8504125 
H    -1.4037478    2.0439149   -2.0594815 
C     3.4234902   -1.8025962   -5.2028477 
C     3.6575313   -0.4699829   -4.8304829 
C     2.6882397    0.2351731   -4.1078411 
C     1.4668430   -0.3763721   -3.7354393 
C     1.2444187   -1.7169781   -4.1234109 
C     2.2107022   -2.4189100   -4.8516154 
H     4.1781992   -2.3576242   -5.7690108 
H     4.5949457    0.0224958   -5.1085308 
H     2.8710959    1.2786731   -3.8272503 
H     0.3165318   -2.2229674   -3.8377856 
H     2.0216222   -3.4574539   -5.1421835 
C    -6.0908162    0.8304283   -2.2137777 
C    -5.4209517    2.0037550   -1.8370411 
C    -4.0218350    2.0521831   -1.8658813 
C    -3.2565220    0.9277888   -2.2590786 
C    -3.9521467   -0.2350742   -2.6705972 
C    -5.3492557   -0.2834609   -2.6433833 
H    -7.1843754    0.7876313   -2.1910163 
H    -5.9887037    2.8871705   -1.5276716 
H    -3.5099373    2.9812754   -1.5941875 
H    -3.3990759   -1.1127803   -3.0193399 
H    -5.8648789   -1.1952214   -2.9615064 
Fe    0.9485014   -0.9362031    3.3118323 
C     2.0096352   -1.3025023    1.6566366 
C     1.1618047   -2.4324503    1.9792585 
H     0.3710760   -2.8339788    1.3503557 
C     1.5133054   -2.9082281    3.2828939 
H     1.0275939   -3.7281998    3.8145963 
C     2.5795968   -2.0933230    3.7821545 
H     3.0519477   -2.1798248    4.7622865 
C     2.8977809   -1.1113358    2.7884134 
C    -0.6843827    0.1327607    2.8131657 
C     0.3885763    0.9926509    3.2775108 
H     0.8624955    1.7898667    2.7075852 
C     0.7220419    0.6192419    4.6203639 
H     1.5051921    1.0711732    5.2314680 
C    -0.1212650   -0.4736122    5.0009995 
H    -0.0926538   -1.0075718    5.9524281 
C    -0.9866960   -0.7777937    3.8998050 
H     3.6636120   -0.3415344    2.8939393 
H    -1.7254719   -1.5798702    3.8858889 
C    -2.9575962   -0.9295581    1.2744574 
C    -4.1853468    0.0194839    1.3871088 
C    -3.7599890    1.3414660    2.0383602 
C    -2.5013936    1.8056970    1.2826768 
H    -2.8346458   -1.4770864    2.2254162 
H    -4.5697916    0.2249646    0.3706673 
H    -4.9965810   -0.4703313    1.9515245 
H    -4.5629421    2.0981306    1.9746913 
H    -3.5343420    1.1891674    3.1098737 
H    -2.7999199    1.9486491    0.2301979 
C     2.9607731    1.2016852    0.4691555 
C     4.1914585    1.0856155   -0.4574433 
C     4.5833258   -0.3957490   -0.5353148 
C     3.3183322   -1.2016430   -0.9101863 
H     3.3004078    1.0302322    1.5043742 
H     3.9367304    1.4398800   -1.4721861 
H     5.0199963    1.7172381   -0.0909544 
H     5.3809978   -0.5591159   -1.2804418 
H     4.9714238   -0.7437893    0.4417882 
H     3.0743967   -0.9979279   -1.9677398 
C     3.4157275   -2.7309486   -0.7065514 
H     3.5588351   -2.9138808    0.3759765 
C     2.1933429    2.5555132    0.4706741 
H     1.1556769    2.3349064    0.7908181 
C    -3.0798200   -1.9633476    0.1301065 
C    -1.7837226    3.1028585    1.7578132 
H    -0.7023776    2.9843232    1.5503224 
H    -3.1031648   -1.3894590   -0.8126347 
C     2.1331043   -3.4507115   -1.1590500 
H     2.1222837   -4.4957550   -0.8054417 
H     1.2228289   -2.9534913   -0.7795858 
H     2.0653523   -3.4590776   -2.2589757 
C     4.6351453   -3.3111513   -1.4498293 
H     4.6591819   -4.4096586   -1.3423791 
H     4.5812320   -3.0759150   -2.5288233 
H     5.5876269   -2.9178283   -1.0568892 
C     2.0953083    3.2323316   -0.9038018 
H     3.0763257    3.6042338   -1.2472115 
H     1.7087021    2.5386420   -1.6669511 
H     1.4091555    4.0955764   -0.8551289 
C     2.8118610    3.5190750    1.5010364 
H     2.2477917    4.4673016    1.5417171 
H     2.8158023    3.0808643    2.5155546 
H     3.8570213    3.7618910    1.2372221 
C    -1.9506805    3.3837025    3.2612851 
H    -1.3259156    4.2442370    3.5573046 
H    -2.9988275    3.6357714    3.5010275 
H    -1.6559395    2.5227577    3.8828374 
C    -2.2647569    4.3060538    0.9243258 
H    -2.0131501    4.1784334   -0.1442559 
H    -3.3598769    4.4329538    1.0054418 
H    -1.7920636    5.2416432    1.2708323 
C    -4.4027919   -2.7450305    0.2338908 
H    -4.4666892   -3.4960707   -0.5728248 
H    -4.4725268   -3.2814872    1.1985028 
H    -5.2813714   -2.0850851    0.1429116 
C    -1.8884735   -2.9255625    0.0591378 
H    -1.7776956   -3.5012960    0.9966915 
H    -2.0145797   -3.6474048   -0.7664144 
H    -0.9507257   -2.3686431   -0.1287608 
