106
Energy =
C    -3.2694042   -1.1990309   -1.2723900 
C    -2.9213898   -2.1290170   -0.2671506 
C    -2.7318151   -1.7340186    1.0951371 
H    -2.6184287   -3.1415666   -0.5621275 
Pd   -1.3545718   -0.5847439   -0.2026300 
P     0.2140577    0.1535361    1.3668162 
P    -0.2080453    0.3559058   -2.0048293 
H    -3.7342669   -0.2527742   -0.9538866 
H    -3.3484519   -0.9072263    1.4777267 
C    -3.5206730   -1.9400966   -5.5023891 
C    -3.7228551   -0.6526130   -4.9839382 
C    -3.6605699   -0.4341928   -3.6034664 
C    -3.3773402   -1.4936975   -2.7114261 
C    -3.1921824   -2.7891437   -3.2481104 
C    -3.2650781   -3.0082734   -4.6267758 
H    -3.5735635   -2.1149210   -6.5819012 
H    -3.9331730    0.1864765   -5.6550159 
H    -3.8271019    0.5723265   -3.2061487 
H    -2.9991626   -3.6383694   -2.5848091 
H    -3.1246059   -4.0193266   -5.0228296 
C    -1.2940590   -4.4841063    4.0807991 
C    -0.8611622   -4.6092602    2.7501689 
C    -1.3054785   -3.7066715    1.7792141 
C    -2.2059503   -2.6666147    2.1127524 
C    -2.6089304   -2.5375897    3.4588578 
C    -2.1596945   -3.4390224    4.4318159 
H    -0.9475442   -5.1910938    4.8414247 
H    -0.1694852   -5.4113645    2.4713853 
H    -0.9379846   -3.7979653    0.7504438 
H    -3.2916417   -1.7285776    3.7397771 
H    -2.4881784   -3.3239538    5.4697106 
Fe    3.2852015    1.0460236   -2.0670327 
C     1.3404632    1.2025022   -1.5513635 
C     2.1619333    0.8946922   -0.3824170 
C     3.1147278    1.9626804   -0.2476132 
C     2.9093843    2.9066095   -1.3035951 
C     1.8213872    2.4465510   -2.1109265 
C     4.6531471    1.3733554   -3.5426954 
C     5.2863282    0.7847502   -2.3968839 
C     4.6551672   -0.4777483   -2.1418786 
C     3.6258762   -0.6685519   -3.1237820 
C     3.6256843    0.4775667   -3.9918490 
C     1.9242930   -0.2017710    0.6272114 
H     3.8818117    2.0222264    0.5268422 
H     3.5044379    3.8030892   -1.4861959 
H     1.4135099    2.9386353   -2.9953038 
H     4.8914666    2.3461306   -3.9768688 
H     6.0914368    1.2294529   -1.8091412 
H     4.9142995   -1.1652024   -1.3350737 
H     2.9542834   -1.5264465   -3.1937407 
H     2.9453126    0.6484710   -4.8264502 
H     2.6462347   -0.0788747    1.4536840 
C     2.0064735   -1.6301188    0.0585992 
H     3.0558502   -1.8799757   -0.1647134 
H     1.6053466   -2.3833440    0.7577302 
H     1.4397414   -1.7089617   -0.8828026 
C    -1.1592570    1.6011524   -2.9160113 
C    -1.1869086    2.0451108   -4.2218786 
C    -2.2081849    3.0465389   -4.2922369 
C    -2.7361956    3.1482303   -3.0288336 
H    -0.5553517    1.6781041   -5.0293796 
H    -2.5132366    3.6174679   -5.1695363 
H    -3.5166061    3.7635851   -2.5835213 
O    -2.1140734    2.2763511   -2.1829814 
C     0.1437573   -0.8933721   -3.2627039 
C     0.0587353   -2.2685880   -3.2020125 
C     0.4812347   -2.7654231   -4.4766446 
C     0.7877155   -1.6609621   -5.2311929 
H    -0.2785031   -2.8456360   -2.3411481 
H     0.5385408   -3.8055910   -4.7965828 
H     1.1415242   -1.5213426   -6.2518160 
O     0.5937323   -0.5184384   -4.5097972 
C     0.4597382    4.7471795    1.7725973 
C     1.2418000    3.9435010    2.6312420 
C     1.1212517    2.5494548    2.5320995 
C     0.2359399    1.9734188    1.5958196 
C    -0.5440207    2.7934763    0.7688983 
C    -0.4349979    4.1976104    0.8414059 
H     0.5517015    5.8382841    1.8399652 
H     1.7180244    1.9066800    3.1898196 
H    -1.2383080    2.3439448    0.0506094 
C     0.1353776   -1.3270521    5.7472054 
C    -0.7225356   -0.2859044    5.3385570 
C    -0.6770859    0.1276059    3.9989700 
C     0.2121473   -0.4791486    3.0843127 
C     1.0408471   -1.5279355    3.5140994 
C     1.0123858   -1.9633006    4.8544356 
H     0.1111533   -1.6568837    6.7928216 
H    -1.3259730    0.9459299    3.6656822 
H     1.7301504   -2.0171954    2.8193554 
C     2.1861350    4.5808601    3.6261581 
H     2.9393116    5.2049783    3.1117239 
H     1.6391601    5.2418874    4.3224224 
H     2.7189180    3.8226798    4.2229319 
C    -1.2498089    5.0720070   -0.0859236 
H    -2.3190769    4.7978329   -0.0540800 
H    -1.1593676    6.1383131    0.1768772 
H    -0.9135113    4.9478022   -1.1318436 
C    -1.6977441    0.3354027    6.3125728 
H    -2.5768345   -0.3231920    6.4504691 
H    -1.2398538    0.4783912    7.3061932 
H    -2.0644333    1.3115571    5.9547263 
C     1.9038226   -3.1006088    5.2980542 
H     1.6407234   -4.0292112    4.7588193 
H     2.9654899   -2.8855796    5.0809244 
H     1.8074827   -3.2947278    6.3784106 
