124
Energy =
C    -0.4740932    2.4305282   -2.4520800 
C    -0.6605540    1.2049958   -3.1114573 
C    -1.7681708    0.3428613   -2.8320529 
H     0.1071887    0.8501229   -3.8109319 
Pd   -0.5122132    0.5070514   -1.0136888 
P    -1.3612698   -1.3363677    0.1736435 
P     1.1718382    0.9859120    0.5897787 
H    -1.3278395    2.8307411   -1.8850256 
H    -2.7057414    0.8188520   -2.5097043 
C     2.4818814    5.4089167   -3.4066516 
C     1.4078117    5.7077294   -2.5547010 
C     0.4578181    4.7255368   -2.2537867 
C     0.5673948    3.4156129   -2.7789377 
C     1.6460991    3.1376844   -3.6527184 
C     2.5864477    4.1239831   -3.9651197 
H     3.2240878    6.1761378   -3.6491379 
H     1.3037631    6.7122339   -2.1319979 
H    -0.3907095    4.9735201   -1.6076894 
H     1.7533904    2.1436571   -4.0975866 
H     3.4077153    3.8916387   -4.6506695 
C    -2.2004960   -3.2995694   -5.0990568 
C    -0.9488212   -2.9495045   -4.5642434 
C    -0.8058811   -1.7709722   -3.8243033 
C    -1.9136160   -0.9214737   -3.5906662 
C    -3.1633058   -1.2850048   -4.1338654 
C    -3.3030858   -2.4591598   -4.8876781 
H    -2.3129773   -4.2202411   -5.6804905 
H    -0.0828335   -3.6007468   -4.7232077 
H     0.1678083   -1.5126540   -3.3919519 
H    -4.0308601   -0.6362648   -3.9703741 
H    -4.2793498   -2.7191341   -5.3098961 
Fe    2.8961751   -1.7925455    2.2242486 
C     1.4700881   -0.3738434    1.7807764 
C     0.8963116   -1.7116090    1.7767061 
C     1.1124800   -2.2779748    3.0830968 
C     1.8247993   -1.3320120    3.8883583 
C     2.0674235   -0.1701276    3.0879420 
C     3.7877010   -3.5002250    1.5152842 
C     4.1591242   -2.3753587    0.7077505 
C     4.8011363   -1.4118452    1.5590248 
C     4.8226237   -1.9410384    2.8900968 
C     4.1949025   -3.2310325    2.8638293 
C     0.1055925   -2.3942530    0.6867591 
H     0.8144498   -3.2837467    3.3876551 
H     2.1678029   -1.4890563    4.9127010 
H     2.5970657    0.7277050    3.4133555 
H     3.2786007   -4.4033219    1.1739874 
H     4.0028126   -2.2781886   -0.3665744 
H     5.2130285   -0.4498909    1.2511590 
H     5.2212720   -1.4396946    3.7740264 
H     4.0306928   -3.8816053    3.7249437 
H     1.8065291    2.6835225    2.2017170 
C    -0.4069041    3.3652453    3.7479467 
C    -0.2011593    2.1459037    2.8306880 
C     0.8320988    2.4469800    1.7284803 
C     0.3566855    3.6666725    0.9143241 
C     0.1513166    4.8989585    1.8121004 
C    -0.8384966    4.6060629    2.9502622 
H     0.5382682    3.5783285    4.2848156 
H    -1.1590715    3.1214485    4.5202526 
H    -1.1587054    1.9009462    2.3394131 
H     0.0912200    1.2679697    3.4297195 
H     1.0613903    3.9021220    0.1040897 
H    -0.6037386    3.3984028    0.4301393 
H     1.1280862    5.2021799    2.2375880 
H    -0.2007421    5.7482885    1.1984264 
H    -1.8439570    4.4265404    2.5199862 
H    -0.9315050    5.4812924    3.6175021 
H     3.5406385    0.8712672    0.7069669 
C     4.8058654    2.7806759   -0.8254872 
C     3.3374582    2.7415941   -0.3555476 
C     2.9053104    1.2847126   -0.0995162 
C     3.1056810    0.4239212   -1.3627097 
C     4.5602811    0.4766640   -1.8625015 
C     5.0298702    1.9231750   -2.0813451 
H     5.4583556    2.4147459   -0.0075532 
H     5.0981300    3.8283996   -1.0189001 
H     2.6972466    3.1973792   -1.1308586 
H     3.2320583    3.3496173    0.5594809 
H     2.8131537   -0.6178442   -1.1484297 
H     2.4205422    0.7922152   -2.1508051 
H     5.2171163   -0.0135577   -1.1183323 
H     4.6552236   -0.1086744   -2.7952119 
H     4.4637205    2.3647607   -2.9219064 
H     6.0956144    1.9395157   -2.3712755 
H    -1.2608243   -0.3603766    2.3111701 
C    -3.1308328   -1.4029225    4.0454799 
C    -2.6633562   -1.9474483    2.6828222 
C    -2.1355203   -0.8001925    1.7935646 
C    -3.1831359    0.3272329    1.6264485 
C    -3.6813107    0.8336085    2.9940687 
C    -4.2034604   -0.3166126    3.8697342 
H    -2.2598120   -0.9809844    4.5848979 
H    -3.5159643   -2.2340946    4.6630104 
H    -3.5159574   -2.4458311    2.1862036 
H    -1.8805275   -2.7126331    2.8297249 
H    -2.7442330    1.1560011    1.0373996 
H    -4.0480936   -0.0401519    1.0486428 
H    -2.8526768    1.3391702    3.5253943 
H    -4.4676588    1.5942853    2.8397073 
H    -5.1004059   -0.7630112    3.3964453 
H    -4.5250310    0.0693665    4.8533157 
H    -2.1236620   -2.5534525   -1.7411433 
C    -4.8929996   -2.9642485   -1.5426124 
C    -3.9635049   -2.0244905   -0.7527561 
C    -2.5093719   -2.5504245   -0.7047071 
C    -2.4566215   -4.0101587   -0.1908310 
C    -3.3896751   -4.9167338   -1.0168076 
C    -4.8351817   -4.3999717   -1.0028406 
H    -4.5891623   -2.9677079   -2.6040748 
H    -5.9247051   -2.5704048   -1.5037754 
H    -4.3552792   -1.9382786    0.2768744 
H    -3.9833015   -1.0094082   -1.1901492 
H    -1.4289365   -4.4065047   -0.2532242 
H    -2.7557198   -4.0546947    0.8718696 
H    -3.0231743   -4.9539384   -2.0615525 
H    -3.3376341   -5.9473057   -0.6219312 
H    -5.2255325   -4.4265148    0.0341306 
H    -5.4861211   -5.0606252   -1.6026715 
H    -0.3150155   -3.3120630    1.1305256 
C     0.8980614   -2.7793733   -0.5754255 
H     0.2463641   -3.2440126   -1.3355167 
H     1.3624293   -1.8883939   -1.0285908 
H     1.6944541   -3.4930893   -0.3152168 
