110
Energy =
C    -2.0757588    0.1613969   -2.2476507 
C    -0.8121399    0.2745403   -2.8939852 
C     0.0721656   -0.8146291   -2.9929827 
H    -0.5026301    1.2517636   -3.2847256 
Pd   -0.3713223   -0.1251344   -0.7554407 
P     1.8275840   -0.3780847    0.1248418 
P    -1.6923893    0.1506094    1.2104090 
H    -2.5194446   -0.8423672   -2.1961979 
H    -0.3352021   -1.8146036   -2.7856004 
C    -4.9198559    3.3965284   -2.2604710 
C    -3.5430543    3.6758305   -2.2316321 
C    -2.6122462    2.6324171   -2.2219886 
C    -3.0360791    1.2813064   -2.2426050 
C    -4.4243302    1.0172287   -2.2794676 
C    -5.3558114    2.0635169   -2.2886464 
H    -5.6473840    4.2144318   -2.2640067 
H    -3.1951980    4.7137183   -2.2064578 
H    -1.5439606    2.8647215   -2.1614728 
H    -4.7739474   -0.0204132   -2.3158777 
H    -6.4264172    1.8366741   -2.3227057 
C     3.7450947   -0.9114869   -5.2279766 
C     3.2076791    0.3262226   -4.8344748 
C     2.0119601    0.3792088   -4.1118470 
C     1.3282723   -0.8083051   -3.7554598 
C     1.8720721   -2.0447572   -4.1789498 
C     3.0663454   -2.0966942   -4.9066645 
H     4.6831453   -0.9490426   -5.7908721 
H     3.7251601    1.2553739   -5.0945040 
H     1.6074504    1.3532543   -3.8198914 
H     1.3456789   -2.9726935   -3.9310047 
H     3.4684875   -3.0642037   -5.2237314 
Fe    0.8873825   -0.5178463    3.3690560 
C    -0.8147859    0.3930254    2.7832310 
C     0.2480743    1.3534261    2.9949371 
H     0.6533369    2.0263223    2.2394458 
C     0.6763702    1.2599214    4.3590133 
H     1.4791092    1.8396898    4.8177575 
C    -0.0989401    0.2395709    5.0005258 
H     0.0112030   -0.0958659    6.0332847 
C    -1.0149712   -0.3007407    4.0401291 
C     1.9863056   -1.1040546    1.7920142 
C     1.1700727   -2.1964683    2.2761288 
H     0.4149908   -2.7227928    1.6944980 
C     1.5106557   -2.4551588    3.6418290 
H     1.0458630   -3.2033502    4.2861289 
C     2.5404288   -1.5352267    4.0228070 
H     2.9964516   -1.4532654    5.0110916 
C     2.8401030   -0.7025072    2.8947514 
H    -1.7265960   -1.1049628    4.2306886 
H     3.5629608    0.1136809    2.8943121 
C     2.8499266    1.2057245    0.2485436 
C     4.2938007    0.6627556    0.1505765 
C     4.3442321   -0.3346974   -1.0130399 
C     3.1208136   -1.2928587   -0.9341396 
H     2.6664374    1.6622265    1.2379280 
H     5.0248193    1.4798328    0.0292367 
H     4.5601365    0.1437704    1.0867164 
H     4.3036301    0.2084079   -1.9736163 
H     5.2921987   -0.8958052   -1.0097619 
H     2.6708009   -1.3586817   -1.9348748 
C    -2.8678698   -1.2913168    1.5534740 
C    -4.1408256   -0.8670060    0.7991768 
C    -4.4146654    0.5836219    1.2111024 
C    -3.1133901    1.4146872    1.0766635 
H    -3.0917400   -1.1690244    2.6306496 
H    -3.9859091   -0.9403986   -0.2920276 
H    -4.9878592   -1.5268320    1.0536054 
H    -5.2052072    1.0463264    0.5953783 
H    -4.7633651    0.5960033    2.2597063 
H    -3.0326322    1.7205631    0.0227452 
C    -3.1264413    2.7324694    1.8978419 
H    -4.0852599    3.1990699    1.5913908 
C    -2.3609368   -2.7375989    1.3568168 
H    -1.4664104   -2.8343629    1.9983833 
C     2.4484175    2.2203421   -0.8642856 
C     3.3718130   -2.7503510   -0.4630332 
H     3.6153861   -2.7408960    0.6169214 
H     2.2817282    1.6438328   -1.7949170 
C    -3.1750282    2.5736985    3.4279528 
H    -3.4384010    3.5390659    3.8938397 
H    -3.9338673    1.8378994    3.7462275 
H    -2.2029995    2.2597860    3.8399482 
C    -2.0108687    3.6980889    1.4666115 
H    -2.1344795    4.6793475    1.9566370 
H    -1.0175901    3.3125126    1.7481104 
H    -2.0193868    3.8564873    0.3746411 
C    -1.9516108   -3.0706931   -0.0846554 
H    -2.8164154   -3.0321467   -0.7712131 
H    -1.1890835   -2.3527426   -0.4552015 
H    -1.5189826   -4.0839635   -0.1457067 
C    -3.3971944   -3.7506307    1.8838036 
H    -2.9771944   -4.7712090    1.8722349 
H    -3.6969519   -3.5183260    2.9213025 
H    -4.3081118   -3.7594468    1.2596525 
C     4.5481648   -3.4053788   -1.2127767 
H     4.6271771   -4.4709710   -0.9351829 
H     4.3970638   -3.3482179   -2.3065533 
H     5.5149842   -2.9314527   -0.9757029 
C     2.0991117   -3.5934254   -0.6766808 
H     1.1942240   -3.0850999   -0.3023704 
H     1.9427407   -3.7802434   -1.7538911 
H     2.1758542   -4.5704973   -0.1702601 
C     3.5506256    3.2558383   -1.1515749 
H     3.1886053    3.9992981   -1.8829698 
H     3.8345040    3.8012404   -0.2327454 
H     4.4598265    2.7951573   -1.5724654 
C     1.1330701    2.9338799   -0.5137517 
H     0.8095519    3.5927377   -1.3384923 
H     0.3170514    2.2071393   -0.3231402 
H     1.2520431    3.5627386    0.3876221 
