124
Energy =
C     1.3188019    1.0447418   -2.9697134 
C     2.4132614    0.3187932   -2.4285484 
C     2.3309762   -1.0833558   -2.2006343 
H     3.2788311    0.8745016   -2.0447151 
Pd    0.7222889    0.0311956   -1.0642147 
P     0.2666212   -1.4905749    0.6359377 
P    -0.9111280    1.5715790   -0.4371747 
H     0.6091443    0.4908544   -3.6043499 
H     1.6411565   -1.6563844   -2.8389822 
C     1.3198673    5.2967133   -3.6052598 
C     1.9429274    4.7650745   -2.4631054 
C     1.9466050    3.3842921   -2.2435971 
C     1.3160169    2.5084817   -3.1568217 
C     0.6687290    3.0571763   -4.2843995 
C     0.6846620    4.4382832   -4.5143021 
H     1.3243032    6.3775775   -3.7805696 
H     2.4249978    5.4303140   -1.7393135 
H     2.4172221    2.9825442   -1.3402001 
H     0.1519288    2.3930379   -4.9855794 
H     0.1868977    4.8465284   -5.3996434 
C     5.6164103   -3.3608944   -0.6208746 
C     4.6791127   -3.9593296   -1.4751857 
C     3.5871878   -3.2207079   -1.9478975 
C     3.4203521   -1.8637953   -1.5886208 
C     4.3494558   -1.2871865   -0.6898450 
C     5.4383105   -2.0259285   -0.2191758 
H     6.4684156   -3.9381768   -0.2502079 
H     4.7974849   -5.0057417   -1.7718266 
H     2.8672206   -3.6880929   -2.6294664 
H     4.2150194   -0.2554093   -0.3467814 
H     6.1447664   -1.5593360    0.4747903 
Fe   -2.4014013   -1.2524311    3.0174684 
C    -0.6935110   -0.7929495    2.0146379 
C    -1.6943117    0.2605539    1.8777042 
C    -1.9905688    0.7355394    3.2037968 
C    -1.2268992   -0.0226918    4.1486895 
C    -0.4372282   -0.9751600    3.4303547 
C    -4.3621942   -1.5686679    2.5013100 
C    -3.5421775   -2.6497374    2.0431934 
C    -2.8932007   -3.2322732    3.1871383 
C    -3.3140494   -2.5046826    4.3491605 
C    -4.2183928   -1.4741384    3.9257831 
C     1.7611134   -2.1646280    1.4511440 
C     2.2503309   -3.4683315    1.2495468 
C     3.4293342   -3.8783383    1.8876495 
C     4.1698276   -2.9845213    2.6728645 
C     3.7118640   -1.6689687    2.8210023 
C     2.5105596   -1.2614137    2.2293304 
C    -0.6980647   -2.8995873   -0.0378621 
C    -0.8802675   -4.1244937    0.6295936 
C    -1.7124187   -5.1048181    0.0723748 
C    -2.4077543   -4.8630772   -1.1251422 
C    -2.2375960   -3.6352878   -1.7763294 
C    -1.3685482   -2.6696775   -1.2488802 
C    -2.2913408    0.7686458    0.5901875 
H    -2.7152639    1.5103852    3.4555935 
H    -1.2718263    0.0783312    5.2344462 
H     0.2519388   -1.7005774    3.8647502 
H    -4.9815678   -0.9259536    1.8737507 
H    -3.4350930   -2.9696751    1.0056200 
H    -2.2215489   -4.0900396    3.1817992 
H    -2.9855988   -2.6876861    5.3738624 
H    -4.6940388   -0.7331300    4.5709364 
H     1.7293913   -4.1772718    0.6025327 
H     2.1617267   -0.2339722    2.3755018 
H    -0.3931641   -4.3166441    1.5891988 
H    -1.2167851   -1.7191790   -1.7758294 
H    -2.5913678   -0.0980137   -0.0288603 
C    -3.5033681    1.6871592    0.7940735 
H    -4.2792770    1.1513987    1.3661513 
H    -3.2317738    2.5909894    1.3626720 
H    -3.9306903    1.9971434   -0.1725967 
C     3.8782719   -5.3211689    1.7762576 
F     3.4219452   -6.0450673    2.8252505 
F     3.4093167   -5.9085482    0.6493926 
F     5.2267639   -5.4279168    1.7711936 
C     4.5545431   -0.6318927    3.5260918 
F     5.1787195    0.1675243    2.6104873 
F     3.7987450    0.1844933    4.3010881 
F     5.5094938   -1.1787338    4.2998793 
C    -1.8298273   -6.4500038    0.7620048 
F    -2.9825339   -7.0744204    0.4507506 
F    -0.8084512   -7.2619742    0.4078383 
F    -1.7790734   -6.3123297    2.1127985 
C    -3.0104929   -3.2806227   -3.0273764 
F    -3.9130518   -2.2930852   -2.7576644 
F    -2.1888367   -2.7915736   -3.9906495 
F    -3.6836494   -4.3248194   -3.5373131 
H     5.1025691   -3.3026205    3.1447881 
H    -3.0781009   -5.6214587   -1.5372843 
C    -3.1852889    3.2453963   -4.0880790 
C    -3.2035190    1.8626108   -3.8072161 
C    -2.5061208    1.4086395   -2.6768095 
C    -1.8024518    2.3115883   -1.8484768 
C    -1.7773081    3.6781922   -2.1666362 
C    -2.4847713    4.1620679   -3.2865987 
H    -3.7272475    3.6138552   -4.9677121 
H    -2.5161583    0.3361532   -2.4448957 
H    -1.1819112    4.3744089   -1.5688762 
C    -3.9579471    0.9019558   -4.6998658 
H    -3.8048152   -0.1447956   -4.3931760 
H    -5.0429160    1.1107758   -4.6710073 
H    -3.6373591    1.0062001   -5.7517449 
C    -2.4946502    5.6402723   -3.6048973 
H    -3.3857847    6.1257944   -3.1642380 
H    -1.6023439    6.1435471   -3.1978030 
H    -2.5289095    5.8181232   -4.6928994 
C     0.9883708    4.6348477    2.4508587 
C    -0.2894021    4.9328816    1.9360334 
C    -0.8807313    4.0278467    1.0359321 
C    -0.1992821    2.8551117    0.6505853 
C     1.0768208    2.5872820    1.1839001 
C     1.6875543    3.4671435    2.0948510 
H     1.4539408    5.3391611    3.1512848 
H    -1.8719109    4.2530684    0.6302400 
H     1.6019938    1.6746361    0.8696460 
C    -1.0037521    6.2014881    2.3470367 
H    -1.9781085    6.3010655    1.8416471 
H    -1.1799292    6.2191151    3.4377426 
H    -0.3977894    7.0922947    2.1025868 
C     3.0422157    3.1513663    2.6888070 
H     3.6077720    2.4413112    2.0630848 
H     3.6493711    4.0635659    2.8144772 
H     2.9333736    2.6883444    3.6866441 
