134
Energy =
C    -0.7735770    1.2900274   -3.0182728 
C     0.2723732    0.3897088   -3.2944805 
C     0.1700892   -1.0109415   -3.0431568 
H     1.2374514    0.7864236   -3.6313214 
Pd   -0.0162773    0.0975332   -1.1176409 
P     0.2609180   -1.7926832    0.2563054 
P    -0.6894682    1.6324509    0.5718190 
H    -1.7741192    0.8671827   -2.8437622 
H    -0.8345204   -1.4580814   -3.0656362 
C    -0.8372332    5.4618255   -4.0527878 
C    -1.9582451    4.8491144   -3.4738897 
C    -1.9165466    3.4944756   -3.1305559 
C    -0.7504360    2.7223156   -3.3405314 
C     0.3753989    3.3604855   -3.9149066 
C     0.3266949    4.7086717   -4.2774298 
H    -0.8700349    6.5202265   -4.3305942 
H    -2.8697570    5.4278605   -3.2938753 
H    -2.8030583    3.0191217   -2.6974488 
H     1.2952391    2.7960547   -4.0959316 
H     1.2035965    5.1786903   -4.7339471 
C     3.3403065   -3.7087316   -4.1395502 
C     3.6503160   -2.4102940   -3.7019469 
C     2.6294900   -1.5335433   -3.3207174 
C     1.2740456   -1.9353428   -3.3685426 
C     0.9796065   -3.2479437   -3.7954960 
C     2.0018134   -4.1238015   -4.1803597 
H     4.1391249   -4.3940732   -4.4408004 
H     4.6939379   -2.0798994   -3.6607778 
H     2.8837798   -0.5277158   -2.9711137 
H    -0.0636146   -3.5775885   -3.8364396 
H     1.7507307   -5.1361059   -4.5124097 
Fe    4.2630891    0.3082339    1.5094750 
C     2.3988820   -0.2605038    0.9831874 
C     2.3922678    1.1349556    1.3810957 
C     3.3345643    1.8378775    0.5424439 
H     3.5631717    2.9022482    0.6211015 
C     3.8889541    0.9075962   -0.3957162 
H     4.6434549    1.1286851   -1.1532586 
C     3.3156429   -0.3796852   -0.1297847 
H     3.5575496   -1.2976707   -0.6654056 
C     4.7939343    0.0075573    3.4647099 
H     4.1483590    0.0837332    4.3417000 
C     5.5720111    1.0699501    2.8889498 
H     5.6220505    2.1011769    3.2437186 
C     6.2779146    0.5389163    1.7580301 
H     6.9425598    1.0976098    1.0966154 
C     5.9354801   -0.8498349    1.6325735 
H     6.2919907   -1.5303566    0.8569543 
C     5.0168186   -1.1779348    2.6863492 
H     4.5613206   -2.1549646    2.8612010 
C     1.5382592    1.8016732    2.3960845 
C     0.1468102    1.9818600    2.1976785 
C    -0.6072712    2.6709370    3.1739652 
H    -1.6747508    2.8474110    3.0102222 
C    -0.0097547    3.1587080    4.3401073 
H    -0.6179208    3.6822435    5.0848157 
C     1.3699002    2.9965435    4.5309706 
H     1.8552957    3.3908229    5.4297355 
C     2.1275363    2.3310578    3.5630625 
H     3.2042991    2.2024309    3.6925808 
C    -1.3708794   -2.2789670    0.9500703 
C    -1.5265942   -3.0796515    2.0968190 
H    -0.6596569   -3.3526094    2.7046790 
C    -2.7936038   -3.5696474    2.4615333 
C    -3.8892595   -3.2906176    1.6215355 
H    -4.8754215   -3.6920957    1.8859895 
C    -3.7579810   -2.5221118    0.4510846 
C    -2.4909977   -1.9965249    0.1432188 
H    -2.3660236   -1.3668450   -0.7467750 
C     0.8060313   -3.4209200   -0.4377111 
C    -0.1677546   -4.3329928   -0.8999126 
H    -1.2293108   -4.0700346   -0.8567745 
C     0.1972819   -5.5957289   -1.3941763 
C     1.5625940   -5.9376189   -1.4280482 
H     1.8585512   -6.9236477   -1.8059631 
C     2.5568931   -5.0423750   -1.0028664 
C     2.1630758   -3.7823592   -0.5131109 
H     2.9460929   -3.0974678   -0.1768932 
C     1.5905517   -1.4048747    1.5592541 
H     2.2386240   -2.2959330    1.5590623 
C     1.0847492   -1.1938726    2.9961841 
H     1.8826093   -0.7094674    3.5825150 
H     0.1945652   -0.5496708    3.0486976 
H     0.8451988   -2.1565365    3.4723200 
C    -0.8510710   -6.5550179   -1.9123733 
C     4.0235204   -5.4072946   -1.0507374 
C    -2.9821243   -4.3799629    3.7246559 
C    -4.9371058   -2.3014968   -0.4692149 
C    -5.0463522    0.4354767    1.6080373 
C    -4.7722756    1.0730173    0.3827108 
C    -3.4433787    1.4334732    0.1015750 
C    -2.4138840    1.1916081    1.0328024 
C    -2.7141044    0.5259145    2.2347563 
C    -4.0329929    0.1423732    2.5379644 
H    -6.0789095    0.1443590    1.8367139 
H    -3.2108337    1.9275148   -0.8477729 
H    -1.9184787    0.2950621    2.9498163 
C    -0.5036495    6.0991953   -0.5905805 
C     0.5778175    5.2430140   -0.8719520 
C     0.4352539    3.8752354   -0.5863985 
C    -0.7425718    3.3852027    0.0064012 
C    -1.8061331    4.2600613    0.2874673 
C    -1.7021823    5.6281954   -0.0242636 
H    -0.4105346    7.1665716   -0.8256415 
H     1.2547588    3.1820689   -0.8130065 
H    -2.7214471    3.8851924    0.7574644 
H    -3.5961165   -5.2778454    3.5373136 
H    -2.0171593   -4.7029519    4.1484026 
H    -3.5057343   -3.7825890    4.4946087 
H    -5.1499111   -3.2167602   -1.0527608 
H    -5.8500319   -2.0558315    0.0993390 
H    -4.7442975   -1.4822327   -1.1804456 
H    -0.8762692   -6.5413155   -3.0190126 
H    -0.6350785   -7.5927769   -1.6056395 
H    -1.8583440   -6.2887121   -1.5515298 
H     4.4241277   -5.5707319   -0.0329526 
H     4.1927176   -6.3286547   -1.6311270 
H     4.6139719   -4.5964611   -1.5126989 
C    -5.8838110    1.3815888   -0.5960040 
H    -5.4907667    1.5734051   -1.6086753 
H    -6.6074974    0.5508126   -0.6576731 
H    -6.4454634    2.2804832   -0.2800754 
C    -4.3519111   -0.5490761    3.8445118 
H    -3.4561141   -1.0293377    4.2709649 
H    -4.7339379    0.1750172    4.5884569 
H    -5.1265481   -1.3227289    3.7088003 
C     1.8685887    5.7850497   -1.4424155 
H     2.4920379    6.2261916   -0.6417647 
H     2.4576263    4.9901286   -1.9290656 
H     1.6785017    6.5780059   -2.1853929 
C    -2.8643360    6.5666626    0.2132811 
H    -2.5221434    7.5482024    0.5834102 
H    -3.4150917    6.7475426   -0.7298311 
H    -3.5801093    6.1510220    0.9418543 
