86
Energy =
C     2.0610287    1.7111720    1.5321621 
C     1.1056955    2.6107250    0.9548706 
C    -0.1914043    2.7306897    1.4891280 
H     1.3563683    3.1221810    0.0168019 
Pd    0.2779693    0.5792274    0.7824172 
P    -1.5309380    0.1808083   -0.6769740 
P     0.7980778   -1.6990660    1.1985371 
H     2.0352274    1.5818920    2.6227149 
H    -0.3598572    2.3075584    2.4920152 
C     5.8864385    1.1762863   -0.3831849 
C     4.7151775    1.2403172   -1.1558138 
C     3.4729658    1.4085991   -0.5338447 
C     3.3719311    1.5110748    0.8739952 
C     4.5594857    1.4517879    1.6357384 
C     5.8031799    1.2872576    1.0133910 
H     6.8589512    1.0435497   -0.8678906 
H     4.7716163    1.1551426   -2.2462748 
H     2.5594343    1.4360941   -1.1411194 
H     4.5054592    1.5413228    2.7261732 
H     6.7128367    1.2476478    1.6214440 
C    -3.3985152    5.2475784    0.1441175 
C    -3.5862685    4.3515765    1.2091953 
C    -2.5221122    3.5572368    1.6481605 
C    -1.2547328    3.6260811    1.0202166 
C    -1.0727276    4.5574572   -0.0291909 
C    -2.1354601    5.3566134   -0.4620671 
H    -4.2280001    5.8733477   -0.2004799 
H    -4.5612013    4.2795365    1.7018651 
H    -2.6657553    2.8651814    2.4852211 
H    -0.0948644    4.6627863   -0.5081717 
H    -1.9785873    6.0737327   -1.2742385 
Fe    0.4658959   -2.3222724   -2.1590239 
C     1.2390065   -2.5947790   -0.3147373 
C     2.2342866   -2.0524398   -1.2172198 
H     2.7603539   -1.1047137   -1.0850462 
C     2.3938712   -2.9708719   -2.3050117 
H     3.0542333   -2.8351393   -3.1632438 
C     1.5085282   -4.0793399   -2.0899968 
H     1.3780708   -4.9347513   -2.7553937 
C     0.7995924   -3.8605706   -0.8638833 
C    -0.9927859   -0.8971129   -2.0568705 
C    -1.5368301   -2.1550747   -2.5207159 
H    -2.3473196   -2.7197022   -2.0571693 
C    -0.8370575   -2.5360893   -3.7139963 
H    -1.0115023   -3.4452278   -4.2921349 
C     0.1444074   -1.5292387   -4.0000848 
H     0.8519428   -1.5392542   -4.8310192 
C     0.0664290   -0.5278160   -2.9753490 
H     0.0575957   -4.5329249   -0.4377892 
H     0.7050013    0.3524589   -2.8931354 
C    -2.2284847    1.6625283   -1.6045964 
C    -3.5163575    1.0890406   -2.2222250 
C    -4.2621479    0.3546170   -1.0966963 
C    -3.2543443   -0.4305394   -0.1960169 
H    -2.5095268    2.3584360   -0.7921993 
H    -4.1347877    1.8946348   -2.6580313 
H    -3.2557687    0.3968158   -3.0454506 
H    -4.7773642    1.1020858   -0.4662988 
H    -5.0378296   -0.3236393   -1.4903732 
H    -3.2866585   -1.5052104   -0.4358530 
C    -0.6446526   -2.5435227    2.0957570 
C    -0.0072526   -3.3870113    3.2231406 
C     1.2539196   -2.6590936    3.7016482 
C     2.0818531   -2.3302871    2.4452539 
H    -1.1421058   -1.6744325    2.5655757 
H    -0.7348987   -3.5534827    4.0373425 
H     0.2697631   -4.3816486    2.8247490 
H     0.9838577   -1.7244615    4.2323034 
H     1.8459944   -3.2704740    4.4057801 
H     2.4052732   -3.2852914    1.9872312 
C     3.3024331   -1.4482284    2.6802741 
H     3.0141462   -0.4934613    3.1494581 
H     4.0085003   -1.9578637    3.3598902 
C    -1.6723958   -3.2974987    1.2419733 
H    -2.6421183   -3.3485504    1.7658318 
H    -1.8290420   -2.8171396    0.2641514 
C    -1.2964344    2.3833553   -2.5792216 
H    -0.3192668    2.6115198   -2.1189515 
H    -1.7526020    3.3408530   -2.8842054 
C    -3.5444765   -0.2359562    1.2994859 
H    -2.8461797   -0.7994055    1.9376457 
H    -4.5698970   -0.5747819    1.5305854 
H    -1.3446003   -4.3328695    1.0558065 
H     3.8358038   -1.2245477    1.7427462 
H    -3.4729337    0.8301234    1.5752594 
H    -1.1245568    1.7848518   -3.4888637 
