90
Energy =
C     2.0990924   -0.4044142    2.2835784 
C     2.7743719    0.2604627    1.2386821 
C     2.4452363    1.5983786    0.8772781 
H     3.5007180   -0.2931545    0.6316038 
Pd    0.6712643    0.2402791    0.5364837 
P    -0.4618460    1.7599415   -0.8814154 
P    -0.8376404   -1.5910365    0.6774562 
H     1.5329111    0.2222308    2.9879370 
H     2.0127391    2.2303535    1.6654881 
C     2.8475105   -4.3844814    3.7393092 
C     1.9830373   -3.5183887    4.4267555 
C     1.7675157   -2.2210553    3.9491980 
C     2.3972319   -1.7610464    2.7672705 
C     3.2947913   -2.6351999    2.1091392 
C     3.5119028   -3.9308956    2.5873877 
H     3.0174600   -5.4010937    4.1078744 
H     1.4819750   -3.8524476    5.3410424 
H     1.1028937   -1.5467825    4.4998660 
H     3.8240319   -2.3074784    1.2095804 
H     4.2069042   -4.5926848    2.0603979 
C     4.3202290    3.8298856   -2.2936456 
C     3.6722168    4.4898235   -1.2384187 
C     3.0836019    3.7517591   -0.2037326 
C     3.1211322    2.3379398   -0.2049633 
C     3.7887608    1.6877750   -1.2706641 
C     4.3822606    2.4259901   -2.2999433 
H     4.7806615    4.4048320   -3.1033673 
H     3.6312860    5.5837639   -1.2175061 
H     2.5907292    4.2734701    0.6246136 
H     3.8182210    0.5938233   -1.3130563 
H     4.8906930    1.9041543   -3.1173124 
Fe   -2.9951770   -0.4483528   -1.6820254 
C    -2.1655729    1.3643432   -1.3842264 
C    -3.2302545    1.1205479   -0.4310730 
H    -3.1219257    1.1105341    0.6550409 
C    -4.4459807    0.8979048   -1.1572475 
H    -5.4177878    0.6631930   -0.7196089 
C    -4.1533726    0.9978434   -2.5559471 
H    -4.8619496    0.8481004   -3.3725602 
C    -2.7564431    1.2842460   -2.7049321 
C    -1.9399055   -1.8707856   -0.7405759 
C    -1.5286545   -1.7694816   -2.1239570 
H    -0.5277220   -1.5119671   -2.4675178 
C    -2.6685409   -2.0239678   -2.9534834 
H    -2.6861748   -1.9878888   -4.0440891 
C    -3.7888380   -2.2926171   -2.1011721 
H    -4.8102070   -2.4959915   -2.4279933 
C    -3.3501052   -2.2064973   -0.7393076 
C     0.1031105   -3.2274385    0.7508102 
C    -2.0468860   -1.3899301    2.1184125 
H    -2.2343197    1.3950215   -3.6549881 
H    -3.9833565   -2.3490975    0.1374068 
C    -0.6598953    3.4481345   -0.0472607 
C     0.5502389    2.0923418   -2.4237231 
H     0.5842219   -3.2312705    1.7447739 
H    -2.9100094   -0.9288930    1.6032534 
H     0.3219884    3.9229980   -0.2363695 
H     1.5058416    2.3967508   -1.9633074 
C    -1.7800413    4.3122572   -0.6576862 
H    -1.7254090    5.3306965   -0.2328937 
H    -1.7151522    4.3966932   -1.7522925 
H    -2.7716272    3.8963206   -0.4119326 
C    -0.8604363    3.3157491    1.4731816 
H    -0.8554765    4.3170198    1.9394130 
H    -1.8333445    2.8493906    1.7074329 
H    -0.0702698    2.7110255    1.9485632 
C     0.1069493    3.2488039   -3.3366422 
H     0.8124872    3.3167373   -4.1839021 
H    -0.9040732    3.1112542   -3.7534615 
H     0.1380705    4.2163505   -2.8112773 
C     0.8247072    0.7893203   -3.1942298 
H     1.5990284    0.9732007   -3.9595055 
H     1.1992098    0.0018682   -2.5152666 
H    -0.0759950    0.4097301   -3.7058352 
C    -0.7512459   -4.4956909    0.5800118 
H    -0.0808356   -5.3734343    0.5519121 
H    -1.4625089   -4.6514795    1.4029488 
H    -1.3144098   -4.4734045   -0.3693401 
C     1.1992437   -3.1818510   -0.3338868 
H     1.8944327   -4.0267687   -0.1918414 
H     0.7590883   -3.2717667   -1.3424674 
H     1.7821357   -2.2442882   -0.2956753 
C    -2.5130640   -2.6850607    2.8024571 
H    -3.2457709   -2.4343974    3.5905020 
H    -3.0010707   -3.3807430    2.1016047 
H    -1.6706235   -3.2095441    3.2859748 
C    -1.5244896   -0.3748560    3.1495748 
H    -2.3199034   -0.1410578    3.8792849 
H    -0.6673809   -0.7816349    3.7100017 
H    -1.2064402    0.5670764    2.6700232 
