86
Energy =
C     0.5556778    1.6571600   -2.4501797 
C    -0.3040312    2.4697609   -1.6675975 
C     0.1288241    3.0182089   -0.4371517 
H    -1.3487457    2.5990976   -1.9753008 
Pd    0.1889670    0.7073786   -0.4186421 
P    -0.0808997    0.4095814    1.9148716 
P     0.6312165   -1.5074740   -1.1215479 
H     1.6358699    1.7955923   -2.2972636 
H     1.2158053    3.0976601   -0.2829780 
C    -0.4494044   -0.1311987   -6.2316166 
C    -1.4734304    0.2245946   -5.3367747 
C    -1.1632467    0.8153283   -4.1080880 
C     0.1815180    1.0675862   -3.7468344 
C     1.1998435    0.7179411   -4.6635157 
C     0.8882360    0.1222161   -5.8923941 
H    -0.6952274   -0.5995676   -7.1899573 
H    -2.5190453    0.0297980   -5.5963036 
H    -1.9715869    1.0523447   -3.4083450 
H     2.2460343    0.9193863   -4.4076607 
H     1.6912040   -0.1412458   -6.5884371 
C    -2.1462740    5.7723452    1.9672928 
C    -0.7477349    5.7207552    2.0629496 
C    -0.0236566    4.8129361    1.2802665 
C    -0.6803087    3.9327297    0.3884427 
C    -2.0903812    4.0086288    0.2935387 
C    -2.8132929    4.9167472    1.0740119 
H    -2.7148875    6.4803487    2.5785048 
H    -0.2179349    6.3940025    2.7444645 
H     1.0702497    4.7928212    1.3461764 
H    -2.6294460    3.3510666   -0.3959861 
H    -3.9038632    4.9582991    0.9866497 
Fe    0.5914473   -2.8617477    1.9589719 
C     0.1547789   -2.8535342    0.0076179 
C    -1.0623766   -2.8521023    0.7892070 
H    -1.8336336   -2.0815674    0.7520604 
C    -1.0693922   -4.0209074    1.6172311 
H    -1.8406059   -4.2854065    2.3427018 
C     0.1258533   -4.7647739    1.3492528 
H     0.4260724   -5.6947997    1.8351418 
C     0.8817770   -4.0603487    0.3554968 
C     0.7935186   -0.9990802    2.6579704 
C     2.0709642   -1.5032669    2.2026103 
H     2.6786487   -1.0632792    1.4101957 
C     2.3801827   -2.6856019    2.9506064 
H     3.2628735   -3.3133028    2.8171810 
C     1.3139218   -2.9185397    3.8795813 
H     1.2422982   -3.7545557    4.5775572 
C     0.3357995   -1.8843205    3.7118122 
H     1.8456311   -4.3785270   -0.0443897 
H    -0.5956181   -1.7983489    4.2736043 
C    -1.8574370    0.1987042    2.5196762 
C    -1.9060173    1.0330127    3.8225479 
C    -1.0625418    2.3008511    3.6025073 
C     0.3221204    1.8742796    3.0538171 
H    -1.9936464   -0.8761960    2.7257119 
H    -2.9498699    1.2771158    4.0898997 
H    -1.4880871    0.4455870    4.6606279 
H    -1.5628574    2.9603669    2.8717754 
H    -0.9462549    2.8845252    4.5327467 
H     0.7369664    2.6706137    2.4169118 
C     2.4421050   -1.8861252   -1.5151679 
C     2.4136352   -2.6159114   -2.8896190 
C     1.0271049   -3.2384851   -3.1227321 
C    -0.0159019   -2.1623586   -2.7589327 
H     2.7588334   -2.5814551   -0.7187397 
H     2.6040413   -1.8711097   -3.6845871 
H     3.2226225   -3.3649581   -2.9468228 
H     0.8995244   -3.5585797   -4.1726497 
H     0.8824905   -4.1351259   -2.4909609 
H     0.0936981   -1.3256159   -3.4675326 
C    -1.4759084   -2.6186255   -2.7372049 
H    -1.6290646   -3.4585610   -2.0374686 
H    -2.1499224   -1.7940381   -2.4454704 
C     3.3755076   -0.6685185   -1.4944765 
H     3.3526251   -0.1405985   -0.5250342 
H     4.4153991   -0.9882262   -1.6844389 
C    -2.8878357    0.6460128    1.4711863 
H    -3.9102800    0.4629474    1.8458714 
H    -2.7633314    0.0993447    0.5193580 
C     1.3422726    1.5360051    4.1520755 
H     1.5564335    2.4466516    4.7395065 
H     2.2935951    1.1695958    3.7311249 
H     0.9655617    0.7642721    4.8443600 
H    -2.7943501    1.7221326    1.2533942 
H     3.1018795    0.0548892   -2.2804291 
H    -1.7753002   -2.9532377   -3.7458374 
