134
Energy =
C     1.6622601    2.4596091    2.3534198 
C     1.4123889    3.2483081    1.2118996 
C     0.0621477    3.4662558    0.7990361 
H     2.2473911    3.6036277    0.5955223 
Pd    0.5546570    1.2751071    0.6775843 
P    -1.5986866    0.6077243   -0.0288522 
P     1.7602705   -0.7645970    0.5213272 
H     0.7935784    2.2410884    2.9940913 
H    -0.6928866    3.4901472    1.5944875 
C     5.3759177    1.6920856    4.3612287 
C     4.1804209    1.1093272    4.8119356 
C     2.9803149    1.3760606    4.1456395 
C     2.9534857    2.2061571    2.9974908 
C     4.1635015    2.7957003    2.5634931 
C     5.3586446    2.5463767    3.2461019 
H     6.3156397    1.4966109    4.8874647 
H     4.1834878    0.4599059    5.6932880 
H     2.0431596    0.9418057    4.5109460 
H     4.1701028    3.4649526    1.6977327 
H     6.2849114    3.0217562    2.9082261 
C    -1.1741975    5.3830225   -2.8444396 
C    -2.0486012    5.2928754   -1.7510110 
C    -1.6228352    4.6889850   -0.5622808 
C    -0.3224703    4.1444130   -0.4478599 
C     0.5502374    4.2486076   -1.5588104 
C     0.1296243    4.8693837   -2.7387766 
H    -1.5042931    5.8483230   -3.7780284 
H    -3.0643822    5.6942309   -1.8176802 
H    -2.3001327    4.6432053    0.2961168 
H     1.5575790    3.8199965   -1.5085548 
H     0.8113863    4.9315469   -3.5917732 
Fe   -2.3378749   -4.1509706    0.0261635 
C    -1.5942707   -2.2719401   -0.1327251 
C    -0.5709220   -3.1707305    0.3915309 
C    -0.4001907   -4.2409355   -0.5614450 
H     0.2912391   -5.0762981   -0.4406115 
C    -1.2602500   -3.9984365   -1.6813238 
H    -1.3706998   -4.6365203   -2.5596734 
C    -1.9942780   -2.7948268   -1.4243665 
H    -2.7617263   -2.3881928   -2.0812079 
C    -4.1954601   -4.0256566    0.8752856 
H    -4.7446469   -3.1098050    1.1041151 
C    -3.2941300   -4.7104113    1.7574265 
H    -3.0522899   -4.4154268    2.7802517 
C    -2.7825691   -5.8601978    1.0647534 
H    -2.0698732   -6.5878988    1.4575269 
C    -3.3750256   -5.8884339   -0.2419385 
H    -3.1779561   -6.6285142   -1.0196670 
C    -4.2478771   -4.7546026   -0.3598052 
H    -4.8267141   -4.4795215   -1.2438116 
C     0.2494232   -3.0219106    1.6236340 
C     1.2377303   -2.0107393    1.7852461 
C     1.8603791   -1.8754156    3.0498541 
H     2.5841173   -1.0718253    3.2120114 
C     1.5896774   -2.7508092    4.1055826 
H     2.0941587   -2.6147485    5.0677009 
C     0.6920174   -3.8092341    3.9107274 
H     0.4903683   -4.5252527    4.7138284 
C     0.0324231   -3.9270385    2.6843896 
H    -0.7002573   -4.7213123    2.5236157 
C    -2.8293968    1.7348225    0.7746310 
C    -3.8968408    2.3458105    0.0919776 
H    -4.0804216    2.1427076   -0.9657633 
C    -4.7283187    3.2600019    0.7576625 
C    -4.5160874    3.5808156    2.1063326 
H    -5.1581325    4.3040234    2.6153141 
C    -3.4527862    2.9713142    2.7853207 
C    -2.6204962    2.0581895    2.1271882 
H    -1.7777648    1.6185567    2.6707153 
C    -2.0847548    0.7002068   -1.8021181 
C    -1.2769136    1.4097185   -2.7097546 
H    -0.3910487    1.9431313   -2.3564259 
C    -1.5993624    1.4321501   -4.0730541 
C    -2.7402384    0.7674188   -4.5493605 
H    -2.9776494    0.7631373   -5.6162854 
C    -3.5717828    0.1054075   -3.6392879 
C    -3.2532140    0.0777132   -2.2739958 
H    -3.9319118   -0.4389994   -1.5892343 
C    -2.2372120   -1.0915911    0.5605065 
H    -3.3003359   -1.0834467    0.2616881 
C    -2.1775514   -1.1555327    2.0991444 
H    -2.3648474   -2.1949472    2.4092156 
H    -1.1881836   -0.8634384    2.4903108 
H    -2.9460481   -0.5133587    2.5562712 
C    -0.7098957    2.1608483   -5.0593699 
F    -0.5937422    1.4668554   -6.2136045 
F    -1.1995176    3.3831174   -5.3724354 
F     0.5421931    2.3414956   -4.5645696 
C    -4.8016856   -0.6495039   -4.0950887 
F    -4.6339217   -1.9897282   -3.9006288 
F    -5.8886281   -0.2865562   -3.3755327 
F    -5.0717523   -0.4569037   -5.3980954 
C    -5.7919018    3.9996556   -0.0265554 
F    -5.2900186    5.1644278   -0.5220544 
F    -6.2324205    3.2757440   -1.0795577 
F    -6.8529948    4.3168361    0.7416586 
C    -3.1273745    3.3028460    4.2246065 
F    -3.9223341    4.2626686    4.7280809 
F    -3.2306133    2.2087979    5.0156480 
F    -1.8358589    3.7339805    4.3233097 
H     3.6252872    0.0400571    1.7971377 
C     5.7380956    0.6519108    0.1116808 
C     4.2686897    0.3395393   -0.2280580 
C     3.6083260   -0.5434090    0.8560528 
C     4.4314067   -1.8336505    1.0856203 
C     5.8798054   -1.4771007    1.4693452 
C     6.5476268   -0.6263572    0.3777922 
H     5.7729651    1.2904231    1.0110742 
H     6.1867278    1.2339022   -0.7137297 
H     4.2431891   -0.1921274   -1.1956728 
H     3.6926562    1.2761783   -0.3600681 
H     3.9735251   -2.4608380    1.8678105 
H     4.4453165   -2.4396560    0.1642964 
H     5.8764287   -0.9176366    2.4261754 
H     6.4527393   -2.4054471    1.6435145 
H     6.6192557   -1.2218224   -0.5539841 
H     7.5819960   -0.3672067    0.6664219 
H     0.5102856   -1.7879140   -1.2134853 
C     2.0506401   -3.2209004   -2.9691508 
C     2.4446287   -2.6677082   -1.5849696 
C     1.5628619   -1.4575299   -1.2140550 
C     1.6658092   -0.3589598   -2.2982245 
C     1.2163077   -0.9235956   -3.6563100 
C     2.0801315   -2.1321868   -4.0538811 
H     1.0317485   -3.6439018   -2.9080908 
H     2.7269330   -4.0526548   -3.2368655 
H     3.5032089   -2.3516474   -1.6189603 
H     2.3657935   -3.4565273   -0.8163673 
H     1.0566534    0.5145062   -2.0070157 
H     2.7035821    0.0033931   -2.3893952 
H     0.1530949   -1.2289674   -3.5884881 
H     1.2760857   -0.1354047   -4.4259579 
H     3.1236342   -1.7927267   -4.2079465 
H     1.7391855   -2.5474205   -5.0190885 
