124
Energy =
C     3.1734772   -1.3724638    1.4522572 
C     3.0673371   -2.1809856    0.2977455 
C     3.1547941   -1.6303417   -1.0160956 
H     2.7479158   -3.2250261    0.4114335 
Pd    1.4548623   -0.6993139    0.0869182 
P     0.1128134    0.0214312   -1.6776078 
P    -0.2509949   -0.0225824    1.5915877 
H     3.6280465   -0.3760100    1.3327496 
H     3.8158948   -0.7645841   -1.1594565 
C     3.0737802   -2.7500634    5.5256235 
C     3.0009048   -1.3795879    5.2324485 
C     3.0221104   -0.9449678    3.9043087 
C     3.1100182   -1.8683999    2.8367356 
C     3.1845670   -3.2462489    3.1491291 
C     3.1678154   -3.6802666    4.4787423 
H     3.0614889   -3.0916477    6.5656771 
H     2.9223636   -0.6475158    6.0421466 
H     2.9593964    0.1261109    3.6842841 
H     3.2900899   -3.9851874    2.3484495 
H     3.2408293   -4.7501053    4.7003082 
C     2.3068834   -3.8859059   -4.5880371 
C     1.6320694   -4.1858751   -3.3928879 
C     1.9016246   -3.4583948   -2.2291990 
C     2.8629784   -2.4201310   -2.2311544 
C     3.5375759   -2.1341393   -3.4383899 
C     3.2607022   -2.8582135   -4.6042574 
H     2.0883526   -4.4501290   -5.5005452 
H     0.8826392   -4.9845739   -3.3713410 
H     1.3354560   -3.6743512   -1.3159372 
H     4.2793334   -1.3294930   -3.4631302 
H     3.7907246   -2.6131593   -5.5302630 
Fe   -3.1676039   -1.6184050   -1.8736508 
C    -1.2201762   -1.1956611   -1.4599410 
C    -1.9889695   -1.2957114   -0.2254378 
C    -2.5859621   -2.6034598   -0.1936411 
C    -2.1793722   -3.3219669   -1.3644547 
C    -1.3395810   -2.4675609   -2.1465114 
C    -4.0097301   -0.2823639   -3.1926843 
C    -4.0934918   -1.6218008   -3.6994012 
C    -4.8278120   -2.4089802   -2.7494928 
C    -5.1911455   -1.5572835   -1.6516310 
C    -4.6827569   -0.2424330   -1.9227908 
C    -2.0135697   -0.2609489    0.8684337 
H    -3.2598048   -2.9764406    0.5786856 
H    -2.4887575   -4.3325829   -1.6371859 
H    -0.8565483   -2.7367175   -3.0851209 
H    -3.5189745    0.5549557   -3.6925676 
H    -3.6706363   -1.9802595   -4.6398052 
H    -5.0509329   -3.4739813   -2.8349657 
H    -5.7439596   -1.8611425   -0.7608148 
H    -4.7931016    0.6283326   -1.2733766 
H    -2.1975703    0.7224475    0.4050582 
C    -3.0733129   -0.5259727    1.9453843 
H    -4.0705662   -0.5661595    1.4718067 
H    -2.8941926   -1.4802875    2.4668598 
H    -3.0788776    0.2665727    2.7108070 
C    -0.3031205   -2.0544233    5.8024569 
C    -0.3908415   -0.6553740    5.6659170 
C    -0.3751266   -0.0612611    4.4028682 
C    -0.2818442   -0.8453673    3.2317192 
C    -0.2032509   -2.2584082    3.3430406 
C    -0.2127840   -2.8243624    4.6310305 
H    -0.4590291   -0.0223242    6.5578055 
H    -0.4289136    1.0287125    4.3226456 
H    -0.1318188   -3.9141849    4.7195922 
C     0.1671560    4.4947975    2.5203610 
C     1.3118492    3.6733507    2.4558008 
C     1.1343925    2.3100228    2.1755155 
C    -0.1535850    1.7700363    1.9744868 
C    -1.2745253    2.6119501    2.0483865 
C    -1.1271146    3.9876559    2.3171607 
H     0.2915373    5.5652818    2.7248006 
H     2.0105914    1.6560995    2.0895333 
H    -2.2829705    2.2202216    1.8857127 
C    -0.2979701   -2.7013487    7.1674752 
H    -1.2903260   -2.6154159    7.6476956 
H    -0.0412515   -3.7715075    7.1084549 
H     0.4288536   -2.2069093    7.8361475 
C    -0.1464229   -3.1797385    2.1458391 
H     0.2283031   -2.6652341    1.2398790 
H     0.5054081   -4.0448175    2.3493622 
H    -1.1500064   -3.5691899    1.8998960 
C     2.6931794    4.2610791    2.6417136 
H     2.9646246    4.9038954    1.7834364 
H     2.7408834    4.8921367    3.5462782 
H     3.4607010    3.4744019    2.7297438 
C    -2.3465159    4.8780138    2.3914609 
H    -2.0755274    5.9427883    2.3093412 
H    -3.0575254    4.6423627    1.5811379 
H    -2.8753176    4.7370132    3.3527224 
C     1.1824865    0.0091629   -6.2208940 
C    -0.0460568   -0.4463171   -5.7766367 
C    -0.3511071   -0.4357964   -4.3930317 
C     0.5754818    0.0184784   -3.4565193 
H     1.4271584   -0.0047145   -7.2885366 
H    -0.7913918   -0.8169251   -6.4878089 
H    -1.3334015   -0.7798617   -4.0561870 
C     1.8400292    0.5480449   -3.8923277 
C     2.1442474    0.5226302   -5.3036913 
C     3.4042350    1.0180809   -5.7527352 
C     4.3252969    1.5442295   -4.8623467 
C     4.0167311    1.5978005   -3.4779325 
C     2.8073962    1.1094080   -3.0099305 
H     3.6279173    0.9836762   -6.8246230 
H     5.2859462    1.9258388   -5.2226002 
H     4.7415262    2.0233591   -2.7757666 
H     2.5935640    1.1345753   -1.9377350 
C    -1.8554599    2.0496980   -1.6464562 
C    -0.5206721    1.7320869   -1.4330979 
C     0.3997231    2.7557983   -1.0545577 
C    -0.0256684    4.0645625   -0.9271928 
H    -2.5517045    1.2525774   -1.9174420 
H     1.4426676    2.5035125   -0.8444896 
H     0.6860237    4.8438359   -0.6359232 
C    -1.3894796    4.4207524   -1.1415139 
C    -2.3286798    3.3845345   -1.4934711 
C    -3.6992932    3.7310084   -1.6875468 
C    -4.1242829    5.0420151   -1.5425401 
C    -3.1964499    6.0634709   -1.2005554 
C    -1.8586100    5.7590006   -1.0048001 
H    -4.4118549    2.9471818   -1.9670743 
H    -5.1774425    5.2975548   -1.6982201 
H    -3.5452655    7.0957279   -1.0929571 
H    -1.1437459    6.5449926   -0.7380808 
