124
Energy =
C     2.8427699   -0.6396091   -1.9128782 
C     2.8431387    0.7881450   -1.8598166 
C     3.1246736    1.4677981   -0.6590565 
H     2.5202065    1.3631499   -2.7363018 
Pd    1.2578450    0.0615368   -0.4851782 
P    -0.3375924    1.4541850    0.5605198 
P     0.0898757   -1.9363847   -0.0287236 
H     3.5312024   -1.1488021   -1.2262656 
H     3.5726814    0.8737800    0.1530138 
C     1.7692033   -2.9649115   -5.3812441 
C     1.4276587   -1.6038681   -5.3213851 
C     1.7762414   -0.8357554   -4.2055429 
C     2.4829632   -1.4075387   -3.1210476 
C     2.8403542   -2.7724606   -3.2085274 
C     2.4822897   -3.5444505   -4.3202172 
H     1.4904620   -3.5657085   -6.2528211 
H     0.8792292   -1.1399572   -6.1479145 
H     1.4725240    0.2162153   -4.1701784 
H     3.4130988   -3.2285139   -2.3943803 
H     2.7695908   -4.6003450   -4.3633879 
C     3.5523609    5.7026091   -0.0373137 
C     3.8102536    4.7915053    0.9981828 
C     3.6668002    3.4178117    0.7738322 
C     3.2557709    2.9212238   -0.4860368 
C     3.0351102    3.8525476   -1.5290650 
C     3.1742563    5.2250152   -1.3038198 
H     3.6635317    6.7781150    0.1339634 
H     4.1305096    5.1525356    1.9808995 
H     3.8744457    2.7102845    1.5839844 
H     2.7583965    3.5049030   -2.5288083 
H     2.9966533    5.9287086   -2.1235921 
Fe   -2.7574940    0.2343226    3.1194609 
C    -1.7560982    0.6043596    1.3454362 
C    -1.8299988   -0.8229338    1.6300468 
C    -3.2217880   -1.1764130    1.7316622 
C    -4.0131247    0.0019476    1.5385828 
C    -3.1209974    1.1000883    1.3245644 
C    -2.7602679    1.6450560    4.6142664 
C    -4.0263872    0.9789598    4.5348164 
C    -3.8035255   -0.4238100    4.7420322 
C    -2.3995355   -0.6245598    4.9537543 
C    -1.7549707    0.6528969    4.8747625 
C    -0.6914959   -1.8100123    1.6836060 
H    -3.6033260   -2.1735768    1.9613078 
H    -5.1015090    0.0618580    1.5983257 
H    -3.4205711    2.1353707    1.1535826 
H    -2.5975388    2.7183146    4.5107867 
H    -4.9882862    1.4513811    4.3271282 
H    -4.5663533   -1.2043064    4.7168439 
H    -1.9145641   -1.5844191    5.1400790 
H    -0.6894667    0.8406321    5.0107823 
H    -1.9886696    3.0003961   -0.3501424 
C    -2.5393717    2.1683504   -2.9818139 
C    -1.8598306    1.4160456   -1.8247005 
C    -1.1991529    2.3886093   -0.8266271 
C    -0.2156528    3.3231249   -1.5542023 
C    -0.8932010    4.0711102   -2.7152466 
C    -1.5497978    3.0957899   -3.7045022 
H    -3.3812180    2.7674743   -2.5824258 
H    -2.9775520    1.4404252   -3.6883991 
H    -1.0743594    0.7494846   -2.2318851 
H    -2.5925999    0.7735508   -1.3060789 
H     0.2401024    4.0448071   -0.8554395 
H     0.6097315    2.7035124   -1.9528417 
H    -1.6624592    4.7554943   -2.3071902 
H    -0.1475992    4.7060215   -3.2277241 
H    -0.7630081    2.4813186   -4.1877529 
H    -2.0589553    3.6498276   -4.5129295 
H     1.0278159    3.3384930    1.0890499 
C     1.5687706    3.1984382    3.8783970 
C     1.0434061    2.1436026    2.8889674 
C     0.2936989    2.7837088    1.7041443 
C    -0.8106085    3.7505458    2.1761608 
C    -0.2556867    4.7979183    3.1601417 
C     0.4481629    4.1358692    4.3553187 
H     2.3534382    3.8008369    3.3830886 
H     2.0481387    2.6946212    4.7372729 
H     0.3480850    1.4600062    3.4076838 
H     1.8753950    1.5231207    2.5064238 
H    -1.2710449    4.2613811    1.3117375 
H    -1.6047198    3.1576162    2.6661592 
H     0.4649935    5.4484619    2.6267057 
H    -1.0771756    5.4514424    3.5053665 
H    -0.2897759    3.5577992    4.9454562 
H     0.8571217    4.9055055    5.0337318 
H    -1.9742037   -1.3002953   -0.9525846 
C    -3.4676976   -3.3854931   -1.8980027 
C    -2.2406998   -3.4386275   -0.9672514 
C    -1.3586193   -2.1920003   -1.1827600 
C    -0.9129814   -2.0874296   -2.6541706 
C    -2.1244030   -2.0722625   -3.6012806 
C    -3.0422261   -3.2836765   -3.3723271 
H    -4.0882866   -2.5083883   -1.6271576 
H    -4.0944450   -4.2809809   -1.7367211 
H    -1.6567710   -4.3474608   -1.2038701 
H    -2.5646037   -3.5208578    0.0850738 
H    -0.3095038   -1.1760056   -2.7946484 
H    -0.2504191   -2.9365639   -2.9109683 
H    -2.7001699   -1.1411709   -3.4309202 
H    -1.7710335   -2.0417869   -4.6476070 
H    -2.5032296   -4.2086553   -3.6579958 
H    -3.9311002   -3.2219539   -4.0252877 
H     1.1289678   -3.8025116   -1.0801814 
C     1.2390532   -6.0025913    0.5817484 
C     0.4347854   -4.7020452    0.7754239 
C     1.0882376   -3.5340230   -0.0046992 
C     2.5410768   -3.3496673    0.4919653 
C     3.3574200   -4.6424868    0.3083156 
C     2.6998807   -5.8320750    1.0252671 
H     1.2056123   -6.2914383   -0.4872826 
H     0.7554441   -6.8203196    1.1456149 
H     0.4210547   -4.4514235    1.8538133 
H    -0.6107663   -4.8600448    0.4710299 
H     3.0233124   -2.5114831   -0.0327253 
H     2.5318503   -3.0783793    1.5639545 
H     3.4388289   -4.8698167   -0.7731415 
H     4.3871777   -4.4866489    0.6771169 
H     2.7298374   -5.6593724    2.1193180 
H     3.2709235   -6.7583011    0.8363209 
H    -1.1314848   -2.7988767    1.8993621 
C     0.3893069   -1.5040236    2.7350673 
H    -0.0882989   -1.3019687    3.7054863 
H     1.0816702   -2.3529544    2.8552134 
H     0.9808756   -0.6175698    2.4528667 
