110
Energy =
C     1.1222479    2.8656083    0.9493957 
C     0.4483353    3.0487939   -0.2742395 
C    -0.9660912    2.8960641   -0.3536941 
H     1.0230564    3.2390139   -1.1886236 
Pd    0.0184672    0.9314710    0.2183499 
P    -1.9018133   -0.4522907   -0.1019617 
P     1.6831111   -0.6932247    0.6473399 
H     0.5045504    2.8735939    1.8593291 
H    -1.5315126    3.1026189    0.5639634 
C     5.2977910    3.4344822    1.7780221 
C     4.3630403    3.3366621    2.8201692 
C     3.0066660    3.1566605    2.5279102 
C     2.5545639    3.0720334    1.1889408 
C     3.5069749    3.1980475    0.1488783 
C     4.8622906    3.3732777    0.4429518 
H     6.3609172    3.5670735    2.0027724 
H     4.6926265    3.3973183    3.8622729 
H     2.2797852    3.0684551    3.3428908 
H     3.1900222    3.1504214   -0.8973328 
H     5.5867230    3.4625961   -0.3729795 
C    -3.1796542    3.4824971   -3.9983132 
C    -1.8489338    3.0333924   -4.0533163 
C    -1.1255722    2.8247662   -2.8753561 
C    -1.7117185    3.0787605   -1.6112507 
C    -3.0488703    3.5355742   -1.5727068 
C    -3.7764798    3.7309393   -2.7537882 
H    -3.7464100    3.6371767   -4.9218795 
H    -1.3786905    2.8340062   -5.0218172 
H    -0.1030223    2.4366018   -2.9316368 
H    -3.5143961    3.7539908   -0.6048635 
H    -4.8108905    4.0860721   -2.7022469 
Fe   -0.4334562   -3.2619204    1.1525406 
C     1.1199291   -2.0961323    1.6600345 
C     1.5367516   -3.4821757    1.5887247 
H     2.3047322   -3.8935138    0.9312380 
C     0.7503554   -4.2324365    2.5222588 
H     0.8063168   -5.3110998    2.6795409 
C    -0.1496060   -3.3310385    3.1802287 
H    -0.8991291   -3.6046776    3.9248587 
C     0.0723284   -2.0166321    2.6563285 
C    -1.7219949   -2.2687896   -0.0259299 
C    -2.4239824   -3.2082861    0.8315142 
H    -3.1829083   -2.9681960    1.5766462 
C    -1.9328242   -4.5257277    0.5534957 
H    -2.2458802   -5.4400584    1.0606022 
C    -0.9334354   -4.4255566   -0.4668220 
H    -0.3519440   -5.2507372   -0.8812967 
C    -0.8048996   -3.0468260   -0.8295784 
H    -0.4673183   -1.1094248    2.9346703 
H    -0.1347631   -2.6506708   -1.5901241 
C    -2.9611830   -0.1024150   -1.6364949 
C    -4.3794475    0.1974017   -1.0761732 
C    -4.5442464   -0.5211227    0.2712525 
C    -3.3091911   -0.1830083    1.1407613 
H    -2.5276004    0.8259949   -2.0394141 
H    -4.4906695    1.2867399   -0.9355457 
H    -5.1592163   -0.1060664   -1.7953823 
H    -5.4834262   -0.2449782    0.7792900 
H    -4.5836832   -1.6118724    0.1043644 
H    -3.1758851   -0.9251099    1.9483716 
C     3.4052216   -0.2008937    1.2972794 
C     4.3065436   -0.3731212    0.0504267 
C     3.8511550   -1.6041019   -0.7466592 
C     2.3156123   -1.5351801   -0.9296061 
H     3.3513683    0.8694515    1.5458986 
H     4.2134717    0.5317053   -0.5725077 
H     5.3689355   -0.4401231    0.3352442 
H     4.3669365   -1.6710741   -1.7214011 
H     4.1130350   -2.5215018   -0.1881380 
H     1.8823286   -2.5477697   -0.8854918 
C     1.8040173   -0.8916966   -2.2511838 
H     0.7111480   -0.7488124   -2.1217346 
C     3.8345505   -0.9427733    2.5958868 
H     3.6229915   -2.0231607    2.4883718 
C    -2.8899886   -1.1563787   -2.7833462 
H    -1.8332683   -1.4782221   -2.8657233 
C    -3.3160975    1.2233314    1.7986987 
H    -3.1854742    1.9771655    0.9999821 
C     3.0333749   -0.4035711    3.7962724 
H     3.2178596   -1.0103383    4.6991332 
H     3.3344061    0.6365145    4.0152530 
H     1.9466326   -0.4055543    3.6078082 
C     5.3422493   -0.7862348    2.8751134 
H     5.5870315   -1.2122248    3.8636823 
H     5.9661057   -1.3076804    2.1298446 
H     5.6324427    0.2807871    2.8838085 
C     2.3918033    0.4941631   -2.5570728 
H     1.9113522    0.9230791   -3.4536444 
H     2.2216905    1.1890682   -1.7154792 
H     3.4771343    0.4462154   -2.7541514 
C     2.0162344   -1.8525817   -3.4350301 
H     1.5879908   -1.4311600   -4.3611576 
H     3.0903817   -2.0352102   -3.6175360 
H     1.5373236   -2.8318187   -3.2536384 
C    -3.2612833   -0.4782687   -4.1170006 
H    -3.2031952   -1.2002147   -4.9502575 
H    -4.2934109   -0.0837043   -4.0868427 
H    -2.5872690    0.3659030   -4.3391566 
C    -3.7541892   -2.4118670   -2.5694653 
H    -3.5916712   -3.1221309   -3.3983722 
H    -3.5193213   -2.9365412   -1.6307696 
H    -4.8294857   -2.1591569   -2.5640466 
C    -2.1531777    1.3617403    2.7949240 
H    -2.0868037    2.3888669    3.1945775 
H    -2.2872072    0.6736295    3.6497692 
H    -1.1804512    1.1198191    2.3154025 
C    -4.6503977    1.5281470    2.5062616 
H    -4.5824215    2.4888341    3.0455619 
H    -5.4911469    1.6065920    1.7972866 
H    -4.8959053    0.7439376    3.2457852 
