112
Energy =
C     2.1508993   -0.4626253   -2.4724463 
C     2.6225639    0.8325110   -2.1154386 
C     3.2778476    1.0642593   -0.8824095 
H     2.3678942    1.6902698   -2.7500570 
Pd    1.1678474    0.2584733   -0.5552792 
P     0.7809413    1.4544952    1.4064293 
P    -0.6604028   -1.1952275   -0.3336946 
H     2.6714819   -1.3208261   -2.0229743 
H     3.7232452    0.1907168   -0.3816177 
C     0.0235343   -1.4340724   -6.0944900 
C     0.1190340   -0.0944339   -5.6809659 
C     0.8118060    0.2380501   -4.5127998 
C     1.4350475   -0.7605937   -3.7275197 
C     1.3562314   -2.0994258   -4.1760725 
C     0.6521701   -2.4352263   -5.3394508 
H    -0.5263900   -1.6917906   -7.0052201 
H    -0.3575957    0.6953137   -6.2710653 
H     0.8507188    1.2865097   -4.1985697 
H     1.8655524   -2.8841763   -3.6064763 
H     0.6039008   -3.4805895   -5.6621644 
C     4.8512692    4.8030666    0.5467886 
C     5.3075708    3.5840381    1.0677381 
C     4.7757519    2.3764519    0.5984112 
C     3.7917480    2.3620939   -0.4162567 
C     3.3545919    3.6002182   -0.9435194 
C     3.8714378    4.8051263   -0.4613965 
H     5.2594397    5.7487759    0.9180120 
H     6.0745126    3.5710356    1.8491230 
H     5.1239948    1.4278287    1.0209003 
H     2.5937257    3.6239592   -1.7284706 
H     3.5088839    5.7525043   -0.8729641 
Fe   -2.6591711   -1.5753554    2.6734862 
C    -1.0392627   -1.4685300    1.4347288 
C    -0.9834661   -0.4430666    2.4762515 
C    -0.9971036   -1.1130136    3.7514882 
C    -1.0749979   -2.5238864    3.5282661 
C    -1.1137309   -2.7493726    2.1154304 
C    -4.1968015   -2.3650628    3.7457646 
C    -4.1814722   -0.9331616    3.8639887 
C    -4.3166538   -0.3782359    2.5469372 
C    -4.4185152   -1.4690624    1.6177389 
C    -4.3394790   -2.6958766    2.3555774 
C    -0.8552557    1.0435865    2.2764571 
H    -0.9794448   -0.6271280    4.7272947 
H    -1.1371040   -3.2937026    4.2993587 
H    -1.1943546   -3.7257128    1.6403818 
H    -4.0956468   -3.0763427    4.5675426 
H    -4.0747785   -0.3691121    4.7924462 
H    -4.3481066    0.6847854    2.2995994 
H    -4.5410338   -1.3826308    0.5377975 
H    -4.3744042   -3.7021880    1.9344921 
H    -1.5795282    1.3701081    1.5129241 
C    -1.0818897    1.8502772    3.5617986 
H    -2.0370961    1.5389059    4.0198593 
H    -0.2739555    1.6817620    4.2943510 
H    -1.1437580    2.9285293    3.3487616 
H     0.0565272   -2.5736750   -2.0900130 
C    -0.9440400   -5.1434420   -1.9208351 
C    -1.4147705   -3.8623849   -1.2053465 
C    -0.2440821   -2.8631801   -1.0644080 
C     0.9989865   -3.4903511   -0.3898631 
C     1.4269004   -4.7874311   -1.1004535 
C     0.2591144   -5.7812839   -1.2082655 
H    -0.6614959   -4.8894675   -2.9617178 
H    -1.7827014   -5.8594586   -1.9862931 
H    -1.8266919   -4.1235052   -0.2136651 
H    -2.2409699   -3.4032386   -1.7755495 
H     1.8272696   -2.7569784   -0.3855744 
H     0.7842284   -3.7148219    0.6699566 
H     1.7928259   -4.5477767   -2.1179120 
H     2.2766290   -5.2415729   -0.5602322 
H    -0.0446796   -6.1008475   -0.1913630 
H     0.5813051   -6.6933070   -1.7414226 
H    -2.9543699   -1.4646611   -1.0257610 
C    -3.2132944   -0.0926503   -3.4900965 
C    -1.9514678   -0.5392251   -2.7325963 
C    -2.2156250   -0.6630707   -1.2191309 
C    -2.7674832    0.6614240   -0.6604587 
C    -4.0338868    1.1043686   -1.4136561 
C    -3.7739323    1.2217302   -2.9242655 
H    -3.9836885   -0.8852962   -3.4157340 
H    -2.9731186    0.0145294   -4.5631500 
H    -1.1512135    0.2091909   -2.8792039 
H    -1.5707818   -1.4836066   -3.1590281 
H    -2.9782746    0.5431697    0.4152605 
H    -1.9889764    1.4438331   -0.7617634 
H    -4.8404696    0.3655211   -1.2363142 
H    -4.3922529    2.0652396   -1.0024966 
H    -3.0431777    2.0358172   -3.1035716 
H    -4.7007497    1.5064348   -3.4532295 
C     4.0938821    0.4604919    4.5098359 
C     3.2395528   -0.5286163    3.9948392 
C     2.2478539   -0.1883091    3.0676556 
C     2.0841960    1.1566286    2.6562302 
C     2.9637902    2.1375256    3.1547430 
C     3.9585953    1.7872125    4.0806869 
H     4.8707091    0.1928574    5.2334777 
H     3.3505910   -1.5713359    4.3099478 
H     1.6032810   -0.9711497    2.6539334 
H     2.9016807    3.1698851    2.8052937 
H     4.6366565    2.5601877    4.4571506 
C     0.1102343    5.9263247    0.3108883 
C     0.4983990    5.6114871    1.6219022 
C     0.7249762    4.2791040    1.9942178 
C     0.5897152    3.2433473    1.0449054 
C     0.1891266    3.5715734   -0.2687221 
C    -0.0553428    4.9017936   -0.6324509 
H    -0.0685552    6.9687433    0.0277171 
H     0.6177443    6.4067997    2.3648514 
H     0.9998559    4.0549764    3.0282904 
H     0.0844116    2.7685072   -1.0104104 
H    -0.3651897    5.1387157   -1.6556362 
