112
Energy =
C     1.2764018    0.3614472   -2.9964993 
C     0.7348846    1.6358512   -2.6855794 
C     1.3919897    2.5124979   -1.7883793 
H    -0.2571211    1.9123828   -3.0641276 
Pd    0.8070430    0.5595185   -0.7566628 
P     0.3213903    1.4732453    1.3331251 
P     0.5137957   -1.6697219   -0.1060481 
H     2.3602178    0.2459110   -2.8647981 
H     2.4701068    2.3534526   -1.6335243 
C    -0.3752586   -2.4421557   -5.8163899 
C     0.9570273   -2.5508138   -5.3896992 
C     1.4767106   -1.6313813   -4.4708633 
C     0.6744430   -0.5907119   -3.9447836 
C    -0.6687892   -0.5001091   -4.3795515 
C    -1.1814933   -1.4080803   -5.3119446 
H    -0.7825427   -3.1538809   -6.5414409 
H     1.5971413   -3.3468972   -5.7837246 
H     2.5250883   -1.7053460   -4.1615491 
H    -1.3228020    0.2832349   -3.9827142 
H    -2.2196903   -1.3125376   -5.6461742 
C     0.0993025    6.5281104   -0.9467422 
C     1.4611696    6.1941211   -0.9346983 
C     1.8640920    4.8748250   -1.1763436 
C     0.9156460    3.8699397   -1.4688561 
C    -0.4538498    4.2229032   -1.4859795 
C    -0.8576135    5.5341320   -1.2175931 
H    -0.2178908    7.5568779   -0.7472085 
H     2.2138162    6.9603875   -0.7229024 
H     2.9280645    4.6163747   -1.1439938 
H    -1.2121526    3.4627298   -1.6933599 
H    -1.9237601    5.7834854   -1.2217337 
Fe   -2.0798715   -1.7813340    2.5150080 
C    -0.2866851   -1.9206797    1.5136398 
C    -0.1806427   -1.0526843    2.6855846 
C    -0.5469080   -1.8489420    3.8355046 
C    -0.8869332   -3.1684814    3.4028930 
C    -0.7454891   -3.2150426    1.9824871 
C    -3.8908365   -2.3562571    1.7513990 
C    -3.8790970   -2.4587577    3.1827515 
C    -3.6013291   -1.1554677    3.7190720 
C    -3.4441742   -0.2469817    2.6211275 
C    -3.6214167   -0.9891716    1.4077140 
C     0.4347819    0.3249874    2.8302492 
H    -0.5878685   -1.5004257    4.8674502 
H    -1.2361694   -3.9819402    4.0411947 
H    -0.9459302   -4.0837381    1.3556054 
H    -4.0715927   -3.1753285    1.0527899 
H    -4.0319032   -3.3709800    3.7622772 
H    -3.5073834   -0.9068230    4.7778854 
H    -3.2355098    0.8193580    2.6952153 
H    -3.5633278   -0.5819434    0.3999125 
H     1.6818319   -3.7037496    0.2667348 
C     3.6831033   -1.0721959    1.3710983 
C     2.8466331   -2.3547482    1.4693186 
C     2.0919699   -2.6831258    0.1627606 
C     3.0390138   -2.6415556   -1.0588817 
C     3.9132792   -1.3764615   -1.1066874 
C     4.6777484   -1.1465274    0.2040254 
H     4.2028770   -0.8835293    2.3277285 
H     3.0054159   -0.2120065    1.1909468 
H     2.1464381   -2.3160583    2.3215128 
H     3.5267188   -3.2054474    1.6704534 
H     3.6972042   -3.5298841   -0.9962330 
H     2.4663588   -2.7477542   -1.9980885 
H     4.6029446   -1.4311355   -1.9682250 
H     3.2606411   -0.4964641   -1.2714943 
H     5.2727910   -0.2178377    0.1408637 
H     5.3933457   -1.9737883    0.3779185 
H    -0.0319099   -2.2565547   -2.3447693 
C    -2.7867250   -2.9524803   -2.3886128 
C    -1.9299112   -2.2548713   -1.3196167 
C    -0.4413621   -2.6502308   -1.3965939 
C    -0.2449606   -4.1822990   -1.4228671 
C    -1.0950384   -4.8179125   -2.5397996 
C    -2.5827727   -4.4743678   -2.3736673 
H    -2.5116152   -2.5642645   -3.3855664 
H    -3.8502071   -2.6981572   -2.2257381 
H    -2.3028043   -2.5123503   -0.3145073 
H    -2.0184542   -1.1555760   -1.4150177 
H     0.8175885   -4.4318848   -1.5843453 
H    -0.5365414   -4.6332365   -0.4566999 
H    -0.7388728   -4.4450067   -3.5198017 
H    -0.9427566   -5.9121433   -2.5367384 
H    -2.9505363   -4.8912846   -1.4143985 
H    -3.1795373   -4.9483496   -3.1732852 
H     1.5308292    0.1686161    2.8798598 
C     0.0012924    1.0293640    4.1292704 
H     0.3673666    0.4689328    5.0053703 
H     0.4258771    2.0443875    4.1933715 
H    -1.0977052    1.0870679    4.1910100 
C     3.2057104    4.8755176    2.7185497 
C     3.6135850    3.5321909    2.7388860 
C     2.7380468    2.5246516    2.3181531 
C     1.4340902    2.8411264    1.8712295 
C     1.0490463    4.1956549    1.8167115 
C     1.9270116    5.2004699    2.2505805 
H     3.8868075    5.6628500    3.0574221 
H     4.6162173    3.2651247    3.0885893 
H     3.0805364    1.4861004    2.3427030 
H     0.0713007    4.4809313    1.4193926 
H     1.6043867    6.2452831    2.2039709 
C    -3.9869071    3.2231145    1.0764319 
C    -3.1726108    3.5769076    2.1641236 
C    -1.8737103    3.0612451    2.2738877 
C    -1.3716842    2.1837015    1.2870560 
C    -2.1993911    1.8344140    0.2008201 
C    -3.4987224    2.3479364    0.0953183 
H    -5.0009671    3.6278460    0.9965773 
H    -3.5499406    4.2585140    2.9332829 
H    -1.2526085    3.3552753    3.1237079 
H    -1.8065963    1.1521106   -0.5638932 
H    -4.1302396    2.0647459   -0.7531301 
