94
Energy =
C     1.8007956    2.3981581   -0.5922322 
C     1.2423787    2.0486938   -1.8589772 
C    -0.1327400    2.2311354   -2.1302004 
H     1.8728974    1.5160073   -2.5830846 
Pd    0.2303232    0.8507088   -0.3145580 
P    -1.5994081   -0.6053426   -0.6494853 
P     0.9380989    0.1361766    1.8102713 
H     1.3268464    3.2244166   -0.0405994 
H    -0.6732787    2.9502443   -1.4953959 
C     5.9761134    1.7817982    0.2417033 
C     5.2385969    0.7757849   -0.4049540 
C     3.8761386    0.9599986   -0.6621426 
C     3.2241150    2.1541480   -0.2764478 
C     3.9693925    3.1438479    0.3972869 
C     5.3358594    2.9624818    0.6450066 
H     7.0435808    1.6393580    0.4392523 
H     5.7278903   -0.1568578   -0.7048462 
H     3.2999795    0.1609155   -1.1443671 
H     3.4730343    4.0639721    0.7229091 
H     5.9004070    3.7439383    1.1636216 
C    -2.1930694    1.3718583   -5.8050849 
C    -0.9514019    0.7641572   -5.5519590 
C    -0.2655253    1.0306287   -4.3639913 
C    -0.8120493    1.9025200   -3.3929539 
C    -2.0586767    2.5100713   -3.6659644 
C    -2.7399611    2.2516089   -4.8601880 
H    -2.7264296    1.1629221   -6.7381128 
H    -0.5145511    0.0820152   -6.2885494 
H     0.7061685    0.5569604   -4.1950900 
H    -2.4951020    3.1914454   -2.9288020 
H    -3.7034602    2.7349931   -5.0493441 
Fe   -2.1625307   -0.9333354    2.6859726 
C    -2.3625785   -1.4878950    0.7575357 
C    -3.6616216   -1.2377736    1.3434561 
H    -4.3854016   -0.4987327    0.9983361 
C    -3.8187273   -2.1227649    2.4591012 
H    -4.6824890   -2.1588690    3.1253568 
C    -2.6347860   -2.9235662    2.5701384 
H    -2.4381738   -3.6758695    3.3361126 
C    -1.7304402   -2.5387619    1.5279272 
C    -1.1656790   -1.9805972   -1.7878481 
C    -0.0090625   -1.8781364   -2.5845061 
H     0.6166433   -0.9824268   -2.5043512 
C     0.3487234   -2.9163382   -3.4548760 
H     1.2507019   -2.8273498   -4.0694221 
C    -0.4484954   -4.0683508   -3.5329857 
H    -0.1705413   -4.8820317   -4.2109076 
C    -1.5992448   -4.1815044   -2.7363883 
H    -2.2184573   -5.0828104   -2.7918781 
C    -1.9580663   -3.1454896   -1.8633253 
H    -2.8500670   -3.2438210   -1.2353872 
C    -3.0612561    0.2374166   -1.3812432 
C    -3.5112001    1.4205474   -0.7579302 
H    -2.9599678    1.8287374    0.0967333 
C    -4.6617895    2.0707277   -1.2224022 
H    -5.0110584    2.9820655   -0.7258115 
C    -5.3588243    1.5569380   -2.3277843 
H    -6.2554707    2.0666431   -2.6951905 
C    -4.8969743    0.3979331   -2.9674176 
H    -5.4255053    0.0059525   -3.8423756 
C    -3.7533756   -0.2648220   -2.4976734 
H    -3.3971923   -1.1636850   -3.0095325 
C    -0.4813950    0.1270580    2.9517389 
C    -0.7448923   -0.6969281    4.1125909 
H    -0.1070238   -1.4914374    4.4993652 
C    -2.0248801   -0.3242198    4.6390313 
H    -2.5196167   -0.7901720    5.4932139 
C    -2.5645329    0.7240548    3.8233520 
H    -3.5374254    1.2014578    3.9516586 
C    -1.6196815    1.0092978    2.7848850 
C     1.6446897   -1.5550777    1.8158510 
C     2.1116478   -2.1648709    3.0004056 
H     2.1150181   -1.6080548    3.9430590 
C     2.5961296   -3.4790592    2.9683063 
H     2.9528952   -3.9479366    3.8912189 
C     2.6311177   -4.1918382    1.7581689 
H     3.0090947   -5.2193115    1.7402260 
C     2.1938741   -3.5822674    0.5732882 
H     2.2262678   -4.1260741   -0.3764859 
C     1.7085368   -2.2673812    0.6026678 
H     1.3603234   -1.7922830   -0.3195099 
C     2.1703517    1.1685547    2.7022643 
C     1.7453049    2.3958937    3.2539045 
H     0.6968825    2.7033947    3.1700939 
C     2.6556342    3.2149782    3.9338011 
H     2.3147994    4.1600110    4.3694654 
C     3.9957351    2.8187762    4.0681512 
H     4.7045821    3.4562363    4.6065936 
C     4.4249238    1.6090614    3.5053228 
H     5.4722414    1.3026437    3.5903757 
C     3.5211693    0.7871377    2.8170854 
H     3.8734398   -0.1456260    2.3677069 
H    -0.7407928   -2.9593877    1.3465610 
H    -1.7284734    1.7525751    1.9914886 
