112
Energy =
C     1.6396703    2.8431438   -0.6878148 
C     0.5614395    3.3476698    0.1012313 
C     0.4090770    2.9612053    1.4482785 
H    -0.2133126    3.9595946   -0.3767336 
Pd    0.3566355    1.1416473   -0.0017092 
P    -1.2499659   -0.3817443    0.7987941 
P     1.6304715   -0.5053769   -1.0586301 
H     2.5661615    2.5883949   -0.1540137 
H     1.2816123    2.4916560    1.9282234 
C     2.1687253    3.8220366   -4.8501435 
C     3.2681301    3.4689272   -4.0538957 
C     3.0838941    3.1488819   -2.7039392 
C     1.7976015    3.1660934   -2.1190123 
C     0.6973348    3.5106790   -2.9401169 
C     0.8824421    3.8423403   -4.2860046 
H     2.3114791    4.0773568   -5.9050996 
H     4.2744478    3.4484461   -4.4842401 
H     3.9523627    2.9021131   -2.0839024 
H    -0.3165840    3.5032197   -2.5244955 
H     0.0182164    4.1118614   -4.9022903 
C    -2.4610062    4.4073660    4.3003405 
C    -2.5866667    4.7715855    2.9489030 
C    -1.6693667    4.3054220    2.0020475 
C    -0.5963954    3.4687022    2.3900696 
C    -0.4689134    3.1309240    3.7586619 
C    -1.3943267    3.5884305    4.7026608 
H    -3.1847257    4.7713357    5.0365684 
H    -3.4068622    5.4244166    2.6334901 
H    -1.7912204    4.5948459    0.9535567 
H     0.3658305    2.4966115    4.0760850 
H    -1.2810133    3.3117206    5.7558377 
Fe    0.3160028   -3.5527714   -2.3085384 
C     0.9861245   -2.2005698   -0.9566658 
C    -0.4047711   -2.5528035   -0.7053451 
C    -0.4457626   -3.9726365   -0.4655549 
C     0.8824794   -4.4996629   -0.5924975 
C     1.7684541   -3.4193249   -0.9071267 
C    -0.2326612   -5.0241945   -3.6185620 
C    -1.1398992   -3.9148625   -3.7003474 
C    -0.3826868   -2.7476567   -4.0509836 
C     0.9924492   -3.1394471   -4.1968817 
C     1.0831240   -4.5440024   -3.9295949 
C     3.1048490   -0.5231986    0.0417408 
C     4.1909358    0.3476414   -0.1920757 
C     5.2417183    0.4335854    0.7311404 
C     5.2181544   -0.3384275    1.9029212 
C     4.1414903   -1.2055680    2.1427019 
C     3.0914473   -1.2999504    1.2198848 
C     2.2348218   -0.2702838   -2.7675052 
C     1.3496556    0.3189176   -3.6909369 
C     1.7181367    0.4465620   -5.0359049 
C     2.9781132    0.0001892   -5.4631219 
C     3.8659996   -0.5827908   -4.5449858 
C     3.4974632   -0.7241622   -3.1993878 
C    -1.5585865   -1.5840359   -0.6517551 
H    -1.3427140   -4.5623427   -0.2711643 
H     1.1613896   -5.5515809   -0.5085130 
H     2.8460864   -3.4891936   -1.0650745 
H    -0.4949360   -6.0478872   -3.3450593 
H    -2.2154314   -3.9566133   -3.5198176 
H    -0.7769009   -1.7387602   -4.1832084 
H     1.8232289   -2.4809243   -4.4498586 
H     1.9984217   -5.1387330   -3.9311750 
H     4.2193056    0.9520683   -1.1035205 
H     2.2611704   -1.9854538    1.4134227 
H     0.3749327    0.6825505   -3.3486631 
H     4.1883760   -1.1943681   -2.4921178 
H    -1.4792642   -0.9165082   -1.5292219 
C    -2.9284858   -2.2800817   -0.7007617 
H    -2.9441544   -2.9669311   -1.5634790 
H    -3.1348340   -2.8720021    0.2053618 
H    -3.7481701   -1.5569067   -0.8331470 
H     6.0833560    1.1051723    0.5319174 
H     4.1183968   -1.8163299    3.0512658 
H     1.0272590    0.9087436   -5.7472810 
H     4.8473635   -0.9358901   -4.8784037 
H     6.0393996   -0.2687134    2.6234577 
H     3.2695838    0.1072411   -6.5129527 
H    -3.6154213   -0.6355898    1.1681247 
C    -4.8675926    1.6553575    0.2372364 
C    -3.4066313    1.2117506    0.0444837 
C    -2.9642100    0.2597997    1.1805573 
C    -3.1348128    0.9409623    2.5533843 
C    -4.5947166    1.3925743    2.7507014 
C    -5.0744619    2.3084747    1.6128927 
H    -5.5268898    0.7699109    0.1425050 
H    -5.1567145    2.3517494   -0.5705119 
H    -2.7374852    2.0955931    0.0526478 
H    -3.2816685    0.7326340   -0.9443683 
H    -2.8490299    0.2542452    3.3677300 
H    -2.4649411    1.8123010    2.6183949 
H    -5.2473266    0.4985032    2.8033548 
H    -4.6852447    1.9103132    3.7225643 
H    -4.5043935    3.2554273    1.6501365 
H    -6.1379279    2.5706967    1.7560911 
H     0.1185015   -2.0684085    1.7149928 
C    -1.0610933   -3.3053516    3.8937442 
C    -1.7014637   -2.4200545    2.8075590 
C    -0.6579169   -1.4515660    2.2100839 
C     0.0488022   -0.6096482    3.2973716 
C     0.6631559   -1.5135237    4.3802954 
C    -0.3847682   -2.4614955    4.9859526 
H    -0.3074254   -3.9650304    3.4197819 
H    -1.8295150   -3.9663072    4.3331076 
H    -2.5392345   -1.8477985    3.2477639 
H    -2.1282599   -3.0554747    2.0130240 
H     0.8310067    0.0144668    2.8268976 
H    -0.6733341    0.0853053    3.7637038 
H     1.4792658   -2.1129896    3.9299262 
H     1.1269044   -0.8906009    5.1664411 
H    -1.1535013   -1.8653110    5.5164608 
H     0.0827401   -3.1175234    5.7416376 
