122
Energy =
C    -0.6305767   -2.7572433    1.9779682 
C    -0.0102834   -1.9403447    2.9608243 
C    -0.6512613   -0.8104324    3.5195965 
H     1.0389364   -2.1320055    3.2144229 
Pd   -0.3806504   -0.6274917    1.2264284 
P     0.1083879    1.6920983    1.2392453 
P    -0.2333852   -0.9958896   -1.0793034 
H    -1.7304905   -2.7682454    1.9464309 
H    -1.7478178   -0.7673654    3.4408539 
C     1.2164740   -6.2706910    0.3082481 
C     2.0230650   -5.2354591    0.8094544 
C     1.4368713   -4.0888309    1.3551117 
C     0.0285862   -3.9403274    1.3955413 
C    -0.7666625   -4.9894076    0.8847053 
C    -0.1793414   -6.1450791    0.3554078 
H     1.6749499   -7.1633002   -0.1275526 
H     3.1130975   -5.3164268    0.7675670 
H     2.0868404   -3.3037520    1.7567586 
H    -1.8574228   -4.9031515    0.9110791 
H    -0.8203981   -6.9431059   -0.0322100 
C     0.9704881    1.6685461    6.6366369 
C    -0.3664318    1.8063420    6.2359383 
C    -0.8774514    0.9992032    5.2137720 
C    -0.0615426    0.0479223    4.5585958 
C     1.2872612   -0.0731614    4.9709014 
C     1.7921066    0.7219080    6.0021309 
H     1.3711756    2.2917939    7.4427235 
H    -1.0178330    2.5351546    6.7289428 
H    -1.9280388    1.0965081    4.9258636 
H     1.9527975   -0.7916937    4.4844694 
H     2.8362884    0.6082069    6.3088551 
Fe   -3.4685214    2.3599688   -2.3502547 
C    -2.2392166    0.9650938   -1.5226593 
C    -1.7830388    2.2995936   -1.1850557 
C    -2.8730251    2.9746062   -0.5217987 
H    -2.8431313    4.0003483   -0.1525316 
C    -3.9716427    2.0625783   -0.4075114 
H    -4.9447604    2.2862183    0.0329200 
C    -3.5850195    0.8262223   -1.0194320 
H    -4.2141880   -0.0599266   -1.1341909 
C    -4.1431979    1.8076850   -4.2059927 
H    -4.1229388    0.8054673   -4.6383646 
C    -3.1212281    2.8085861   -4.3259669 
H    -2.1859830    2.7057281   -4.8785441 
C    -3.5554891    3.9746214   -3.6082660 
H    -3.0021834    4.9090132   -3.4971561 
C    -4.8463415    3.6950482   -3.0499689 
H    -5.4362643    4.3712236   -2.4284534 
C    -5.2088347    2.3561510   -3.4178027 
H    -6.1244266    1.8370961   -3.1280572 
C    -0.4001888    2.8274303   -1.3292811 
C     0.5695588    2.6073972   -0.3085905 
C     1.8646116    3.1455327   -0.4559274 
H     2.6142751    2.9838721    0.3232396 
C     2.2078157    3.8957748   -1.5882192 
H     3.2200268    4.2976329   -1.6847600 
C     1.2578505    4.1169139   -2.5924212 
H     1.5197868    4.6966320   -3.4827930 
C    -0.0312095    3.5856865   -2.4563067 
H    -0.7882825    3.7565413   -3.2252179 
C     1.5305961   -0.6224845   -1.4805772 
C     2.4458666   -1.3974680   -0.7433425 
H     2.0780839   -2.1457100   -0.0334794 
C     3.8270805   -1.2346467   -0.9092564 
C     4.3231103   -0.2942795   -1.8178830 
H     5.4006681   -0.1738036   -1.9571469 
C     3.4135377    0.4881704   -2.5462133 
C     2.0288692    0.3439860   -2.3745308 
H     1.3632222    0.9949650   -2.9390726 
C    -0.4356863   -2.7271491   -1.7123762 
C    -1.7329603   -3.2782114   -1.6658525 
H    -2.5630392   -2.7215413   -1.2176059 
C    -1.9856455   -4.5522106   -2.1871057 
C    -0.9436206   -5.3231957   -2.7200941 
H    -1.1368282   -6.3280842   -3.1041066 
C     0.3547408   -4.8016298   -2.7122473 
C     0.6099767   -3.5103257   -2.2283076 
H     1.6362972   -3.1388558   -2.2557424 
C    -1.4869491   -0.1348084   -2.2222938 
H    -2.2108860   -0.9593859   -2.3310689 
C    -0.9579904    0.1728943   -3.6354589 
H    -1.8147064    0.2336178   -4.3230313 
H    -0.4368004    1.1404845   -3.6730505 
H    -0.2820710   -0.6202744   -3.9989054 
C    -3.3682950   -5.1507478   -2.0563921 
F    -3.6523036   -5.9917336   -3.0694838 
F    -3.4740210   -5.8637941   -0.8991937 
F    -4.3267680   -4.1946926   -2.0183878 
C     1.5058683   -5.6334883   -3.2399706 
F     2.6730835   -5.2887163   -2.6432938 
F     1.3013698   -6.9522252   -3.0123941 
F     1.6692125   -5.4715999   -4.5719396 
C     4.7483163   -2.1057461   -0.0863949 
F     4.6185800   -3.4122600   -0.4184460 
F     6.0412925   -1.7646383   -0.2211301 
F     4.4337996   -2.0126126    1.2433235 
C     3.9713925    1.4858846   -3.5416088 
F     2.9991812    2.0828424   -4.2685535 
F     4.6755793    2.4626869   -2.9154842 
F     4.8178939    0.8809612   -4.4034130 
C     4.0714614    2.0418577    3.6641107 
C     3.8846747    1.0215386    2.7186363 
C     2.6697779    0.9240183    2.0289409 
C     1.6311749    1.8508717    2.2673287 
C     1.8156447    2.8538247    3.2368873 
C     3.0329208    2.9463220    3.9273537 
H     5.0198408    2.1221060    4.2053915 
H     4.6783309    0.2953343    2.5175292 
H     2.5296621    0.1263925    1.2926909 
H     1.0098992    3.5536198    3.4726171 
H     3.1625440    3.7267719    4.6840537 
C    -3.1045994    4.4897694    3.0968035 
C    -1.9236225    5.0365904    2.5679643 
C    -0.9485074    4.1988238    2.0108146 
C    -1.1434906    2.8009372    1.9953041 
C    -2.3373036    2.2629468    2.5067799 
C    -3.3135032    3.1034289    3.0588525 
H    -3.8673425    5.1477106    3.5260554 
H    -1.7658748    6.1200322    2.5810329 
H    -0.0455336    4.6326816    1.5676539 
H    -2.5141621    1.1850583    2.4367215 
H    -4.2435913    2.6761738    3.4479459 
