98
Energy =
C    -1.2921248   -1.7425626   -2.2231550 
C    -0.9631207   -0.5047387   -2.8196552 
C     0.3849199   -0.0792263   -2.9595549 
H    -1.7684994    0.1856164   -3.0990989 
Pd   -0.1462300   -0.3489524   -0.7670571 
P     1.5835881    1.0150753    0.1095797 
P    -1.1727676   -1.0998687    1.2149454 
H    -0.4986498   -2.5035082   -2.1766759 
H     1.1546729   -0.8636229   -2.9966107 
C    -5.2589978   -3.3844069   -1.8686225 
C    -4.1296707   -4.2147469   -1.8171736 
C    -2.8479606   -3.6633978   -1.9353519 
C    -2.6629644   -2.2706978   -2.1062717 
C    -3.8145837   -1.4525412   -2.1818066 
C    -5.0948924   -2.0019769   -2.0598483 
H    -6.2624676   -3.8112640   -1.7732737 
H    -4.2464609   -5.2957114   -1.6890647 
H    -1.9715843   -4.3198717   -1.9032174 
H    -3.7128584   -0.3742054   -2.3388285 
H    -5.9717577   -1.3488525   -2.1175019 
C     1.5236401    3.6153413   -4.8505591 
C     0.2847469    3.5227537   -4.1925476 
C    -0.0950355    2.3297490   -3.5705309 
C     0.7540943    1.1967049   -3.5986777 
C     1.9921356    1.3030257   -4.2713219 
C     2.3739173    2.5007975   -4.8897153 
H     1.8221799    4.5527674   -5.3303895 
H    -0.3816424    4.3906657   -4.1555060 
H    -1.0459458    2.2847372   -3.0281695 
H     2.6550625    0.4313884   -4.3158080 
H     3.3370640    2.5627024   -5.4065401 
Fe    0.8253046    0.5519379    3.3578545 
C    -0.2125564   -1.0494061    2.7592813 
C    -0.6384356   -0.6447968    4.0853562 
H    -1.6410133   -0.3294870    4.3778354 
C     0.4996633   -0.6969705    4.9550553 
H     0.5065858   -0.4178891    6.0101601 
C     1.6287400   -1.1423312    4.1933672 
H     2.6471413   -1.2636889    4.5664077 
C     1.1966889   -1.3689742    2.8466473 
C     1.3532235    1.6778395    1.7885826 
C     2.3373643    1.7948266    2.8477883 
H     3.3933664    1.5287667    2.7852390 
C     1.6775701    2.2990479    4.0159929 
H     2.1450077    2.4668460    4.9878724 
C     0.2955605    2.5052738    3.6984395 
H    -0.4747395    2.8586615    4.3859988 
C     0.0912849    2.1334451    2.3300202 
H     1.8203356   -1.7121357    2.0199777 
H    -0.8547496    2.1658270    1.7879212 
C     2.2504524    2.4832584   -0.8897292 
C     3.6961714    2.0579779   -1.2555667 
C     4.2724495    1.2030082   -0.1158011 
C     3.2330535    0.1089594    0.2243892 
H     1.6373412    2.5487142   -1.8012862 
H     3.6775857    1.4702615   -2.1898101 
H     4.3238138    2.9431957   -1.4570800 
H     5.2449395    0.7573998   -0.3910243 
H     4.4540993    1.8373294    0.7705179 
H     3.3321570   -0.2282028    1.2707443 
C    -1.9402815   -2.8141340    1.3063985 
C    -3.1375642   -2.6000038    2.2534719 
C    -3.8372077   -1.3053555    1.8104666 
C    -2.7744217   -0.1866354    1.6278296 
H    -2.3353567   -3.0067936    0.2936996 
H    -3.8226195   -3.4661520    2.2136282 
H    -2.7800441   -2.5163098    3.2978014 
H    -4.3363822   -1.4822550    0.8390863 
H    -4.6157390   -0.9925554    2.5272840 
H    -2.5822980    0.3125563    2.5944378 
C    -3.1553123    0.8882292    0.5924856 
H    -2.3126136    1.5939746    0.4666562 
H    -3.2878885    0.4006310   -0.3892223 
C    -4.4259424    1.6621874    0.9674534 
H    -4.3161313    2.1547409    1.9507632 
H    -4.6443773    2.4446141    0.2204175 
H    -5.3044375    0.9959137    1.0213113 
C    -0.9720026   -3.9388877    1.6976104 
H    -0.5482974   -3.7270781    2.6972673 
H    -1.5630665   -4.8683813    1.8057237 
C     0.1577458   -4.1694774    0.6852261 
H    -0.2416948   -4.4739092   -0.2979612 
H     0.7509030   -3.2496761    0.5262175 
H     0.8464262   -4.9597759    1.0280569 
C     2.1450851    3.8330017   -0.1469735 
H     2.8267760    3.8398860    0.7239836 
H     1.1262045    3.9412432    0.2676329 
C     2.4402431    5.0291418   -1.0640081 
H     1.7376563    5.0539953   -1.9158936 
H     2.3430272    5.9776365   -0.5086818 
H     3.4635180    4.9885734   -1.4767985 
C     3.2887840   -1.1302536   -0.6967977 
H     3.2979163   -0.8050231   -1.7547309 
H     2.3533135   -1.7105550   -0.5675403 
C     4.4940286   -2.0369952   -0.4162784 
H     4.4928062   -2.9116222   -1.0889942 
H     5.4504651   -1.5054999   -0.5624409 
H     4.4725671   -2.4088628    0.6242693 
