110
Energy =
C     2.7411058    0.9814538    0.6107085 
C     2.7419632    1.8949794   -0.5006631 
C     1.8780327    2.9993424   -0.5347536 
H     3.3798701    1.6823103   -1.3678184 
Pd    0.7784438    0.8271424   -0.3799006 
P    -1.0137590    0.6028233   -1.9269526 
P    -0.1118525   -0.4940150    1.3030356 
H     2.5119913    1.3992474    1.6009947 
H     1.3437871    3.2364195    0.3984455 
C     5.0327188   -2.6725002    0.6450556 
C     4.6879875   -2.0351925    1.8467158 
C     3.9680185   -0.8351038    1.8256748 
C     3.5525534   -0.2531039    0.6054949 
C     3.9118825   -0.9082467   -0.5985429 
C     4.6499915   -2.0966076   -0.5777551 
H     5.5879538   -3.6151945    0.6647046 
H     4.9839416   -2.4786516    2.8026716 
H     3.7321476   -0.3267534    2.7657558 
H     3.5913720   -0.4947950   -1.5618753 
H     4.9184883   -2.5845830   -1.5207397 
C     1.5963374    6.1299660   -3.4539408 
C     2.4506958    5.0392751   -3.6945544 
C     2.5616882    4.0091804   -2.7575334 
C     1.8086191    4.0416188   -1.5579728 
C     0.9636596    5.1553830   -1.3252069 
C     0.8580771    6.1881842   -2.2618465 
H     1.5166683    6.9362586   -4.1901742 
H     3.0397938    4.9995870   -4.6164583 
H     3.2427583    3.1766260   -2.9580715 
H     0.3828252    5.1996075   -0.3967264 
H     0.2012067    7.0408706   -2.0626232 
Fe   -3.1190507   -2.3633316    1.1683499 
C    -1.9036124   -0.7425307    1.1493896 
C    -2.6018898   -0.8755820   -0.1210854 
C    -4.0133441   -0.8352908    0.1657853 
C    -4.1922447   -0.6834883    1.5812723 
C    -2.8994917   -0.6372236    2.1967999 
C    -3.0526071   -4.1718286    0.1889245 
C    -2.0359585   -4.1116903    1.1954956 
C    -2.6749632   -3.8809599    2.4606759 
C    -4.0903948   -3.8025149    2.2325300 
C    -4.3236505   -3.9771445    0.8266473 
C     0.0629490    0.5280235    2.8206959 
C     1.0793488    0.3140338    3.7720012 
C     1.2658585    1.2162826    4.8292281 
C     0.4436265    2.3444727    4.9417805 
C    -0.5724451    2.5710966    3.9953983 
C    -0.7586244    1.6735298    2.9424822 
C     0.6808259   -2.1096323    1.6257207 
C     0.6325080   -2.7616038    2.8741108 
C     1.2871612   -3.9863865    3.0492506 
C     1.9724434   -4.5729127    1.9724806 
C     1.9759256   -3.9568448    0.7115494 
C     1.3409414   -2.7229624    0.5440702 
C    -1.9467289   -1.0080623   -1.4743443 
H    -4.8183392   -0.9423556   -0.5626271 
H    -5.1497657   -0.6523403    2.1041091 
H    -2.6933014   -0.5302539    3.2628793 
H    -2.8857114   -4.3430844   -0.8758559 
H    -0.9645827   -4.2209966    1.0268492 
H    -2.1758375   -3.7822659    3.4255723 
H    -4.8538124   -3.6171041    2.9904030 
H    -5.2951199   -3.9498983    0.3295978 
H     1.7347721   -0.5565883    3.6929101 
H    -1.5476067    1.8604799    2.2082775 
H     0.0868761   -2.3157351    3.7114669 
H     1.3753662   -2.2172310   -0.4258606 
H    -1.0909537   -1.6959612   -1.3443593 
C    -2.8961728   -1.6288367   -2.5159671 
H    -3.3725202   -2.5133169   -2.0616558 
H    -3.6942572   -0.9433210   -2.8323176 
H    -2.3554111   -1.9631633   -3.4133091 
C     0.6233161    3.3344746    6.0729416 
F    -0.4768542    3.3762303    6.8612442 
F     1.6804348    3.0277644    6.8550905 
F     0.8141868    4.5871423    5.5907965 
H     2.0537198    1.0431248    5.5673827 
H    -1.2145190    3.4528876    4.0842777 
H     1.2687060   -4.4908591    4.0194468 
H     2.4983027   -4.4280318   -0.1248639 
C     2.7919743   -5.8273643    2.1804257 
F     2.7621112   -6.6301138    1.0929432 
F     4.0962693   -5.5064632    2.4033065 
F     2.3673350   -6.5435049    3.2424309 
C    -0.2199644    0.2413120   -3.6418125 
C    -2.2580889    2.0537509   -1.9774518 
C     0.4462210   -1.1526873   -3.5314149 
H     1.0678660   -1.3226691   -4.4290278 
H     1.1114113   -1.2052797   -2.6483601 
H    -0.2804485   -1.9785078   -3.4736820 
C    -3.6365001    1.6933896   -2.5662217 
H    -4.2576659    2.6076718   -2.5938449 
H    -3.5674792    1.3081378   -3.5959775 
H    -4.1659230    0.9573924   -1.9411489 
C    -1.1996463    0.2843256   -4.8331562 
H    -0.6529231    0.0004304   -5.7515246 
H    -2.0448553   -0.4103529   -4.7225825 
H    -1.6029434    1.2969816   -4.9934385 
C     0.9124088    1.2662702   -3.8773658 
H     1.4254285    1.0212859   -4.8255621 
H     0.5522266    2.3019019   -3.9490924 
H     1.6567470    1.2195914   -3.0640520 
C    -2.4308397    2.5097527   -0.5073859 
H    -3.1236456    3.3709410   -0.4776659 
H    -2.8528164    1.7130788    0.1273348 
H    -1.4645118    2.8300350   -0.0786379 
C    -1.6386270    3.2194606   -2.7752176 
H    -2.2645093    4.1189494   -2.6311531 
H    -0.6240181    3.4634829   -2.4242641 
H    -1.6010580    3.0150624   -3.8571858 
