124
Energy =
C     2.4577626    1.0134285    1.3286560 
C     2.6159918    1.4128703   -0.0398120 
C     1.7082947    2.3372925   -0.5967254 
H     3.3714920    0.9360144   -0.6756426 
Pd    0.6797991    0.3875057    0.1335746 
P    -0.6451015   -0.2903475   -1.7031606 
P    -0.5216625   -0.7768576    1.8231937 
H     2.0516081    1.7780175    2.0024388 
H     1.0992186    2.9087161    0.1213587 
C     4.7938625   -1.9855034    3.3428709 
C     3.9559706   -1.1231859    4.0666960 
C     3.1975198   -0.1576096    3.3983778 
C     3.2585345   -0.0298528    1.9905053 
C     4.0900185   -0.9221617    1.2734999 
C     4.8530558   -1.8831310    1.9439258 
H     5.3918286   -2.7395186    3.8650650 
H     3.8897192   -1.2071496    5.1559732 
H     2.5410340    0.5080261    3.9696656 
H     4.1317653   -0.8770730    0.1808892 
H     5.4943887   -2.5608186    1.3705947 
C     1.7090435    4.1476201   -4.4855927 
C     1.0191830    4.7354800   -3.4154920 
C     1.0097136    4.1106186   -2.1648050 
C     1.7114703    2.8996759   -1.9485359 
C     2.4050630    2.3217496   -3.0378509 
C     2.3963333    2.9374858   -4.2915860 
H     1.6981918    4.6206663   -5.4722055 
H     0.4769721    5.6742993   -3.5622938 
H     0.4694802    4.5709530   -1.3292252 
H     2.9496320    1.3817448   -2.9090957 
H     2.9237381    2.4686542   -5.1280772 
Fe   -3.4042692    1.0966603   -0.1960149 
C    -2.3783885   -0.3755218   -1.1798099 
C    -2.8362507   -0.8430465    0.1264919 
C    -4.2721113   -0.7136313    0.1267601 
C    -4.6991878   -0.1778559   -1.1293774 
C    -3.5397677    0.0325246   -1.9379667 
C    -4.0305042    3.0122921   -0.5822001 
C    -4.6537886    2.4952730    0.6033145 
C    -3.6201483    2.1544568    1.5393630 
C    -2.3583399    2.4660565    0.9318973 
C    -2.6132591    3.0013510   -0.3697436 
C    -2.1144411   -1.6024301    1.2226899 
H    -4.9190003   -0.9694516    0.9689355 
H    -5.7260374    0.0646440   -1.4091079 
H    -3.5239781    0.4406537   -2.9492264 
H    -4.5441934    3.3363970   -1.4893684 
H    -5.7260094    2.3538712    0.7525515 
H    -3.7605516    1.7196441    2.5292526 
H    -1.3768593    2.3280554    1.3798594 
H    -1.8483781    3.3588557   -1.0589590 
H    -2.7799796   -1.5599477    2.0989035 
C    -1.9436685   -3.0955438    0.8759550 
H    -1.2663702   -3.2436177    0.0240031 
H    -1.5530533   -3.6560435    1.7412786 
H    -2.9268176   -3.5140588    0.5998819 
C     1.8992324   -3.9551668    4.3078629 
C     1.0077435   -3.0622044    4.9274389 
C     0.2877189   -2.1325507    4.1719407 
C     0.4158280   -2.0658225    2.7667229 
C     1.3178749   -2.9594070    2.1212142 
C     2.0301944   -3.8784110    2.9109253 
H     0.8793343   -3.0833756    6.0154739 
H    -0.3778574   -1.4413567    4.6944796 
H     2.7303672   -4.5549018    2.4065943 
C    -1.9245793    1.9903755    5.3094163 
C    -2.6652474    0.8217172    5.0397980 
C    -2.2593057    0.0002101    3.9737406 
C    -1.1367772    0.3267324    3.1816033 
C    -0.4167782    1.4907139    3.4926333 
C    -0.7977399    2.3407004    4.5490837 
H    -2.2359615    2.6408597    6.1355822 
H    -2.8301404   -0.9152319    3.7887507 
H     0.4525750    1.7558414    2.8872166 
C     2.7315573   -4.9248277    5.1124970 
H     2.8952047   -5.8689755    4.5660526 
H     3.7279411   -4.4900647    5.3217250 
H     2.2614518   -5.1576874    6.0821938 
C     1.5360111   -2.9698970    0.6323996 
H     1.4885997   -1.9453157    0.2174376 
H     2.5183454   -3.3933064    0.3716479 
H     0.7671572   -3.5638975    0.1089996 
C    -3.8704227    0.4662626    5.8822946 
H    -4.6449354    1.2515309    5.8121911 
H    -4.3217556   -0.4881229    5.5652636 
H    -3.5953114    0.3779254    6.9484430 
C    -0.0226916    3.6109293    4.8201030 
H     1.0659464    3.4385160    4.7552841 
H    -0.2777949    4.3872710    4.0743204 
H    -0.2486973    4.0199381    5.8180797 
C     0.3684712   -4.6826619   -2.9798775 
C    -0.9438985   -4.2777742   -2.8071383 
C    -1.2362949   -2.9385381   -2.4415899 
C    -0.2194094   -2.0071935   -2.2504068 
H     0.5988594   -5.7198296   -3.2463938 
H    -1.7652477   -4.9884973   -2.9427818 
H    -2.2792414   -2.6417260   -2.2906810 
C     1.1493657   -2.3888004   -2.4765523 
C     1.4419190   -3.7564962   -2.8296599 
C     2.8005002   -4.1478495   -3.0239145 
C     3.8335246   -3.2335858   -2.8998402 
C     3.5451135   -1.8795317   -2.5837358 
C     2.2371016   -1.4736041   -2.3779753 
H     3.0130174   -5.1907207   -3.2832673 
H     4.8702418   -3.5478559   -3.0572359 
H     4.3625090   -1.1536535   -2.5092750 
H     2.0179380   -0.4283963   -2.1358332 
C    -1.2781890    1.8533791   -3.4015671 
C    -0.6557925    0.6122908   -3.3111549 
C    -0.0256364    0.0678143   -4.4737013 
C    -0.0274749    0.7686472   -5.6666601 
H    -1.7824092    2.2646955   -2.5273914 
H     0.4532280   -0.9127820   -4.4335214 
H     0.4599046    0.3379160   -6.5482847 
C    -0.6538344    2.0431868   -5.7788856 
C    -1.3114298    2.5860817   -4.6185375 
C    -1.9562882    3.8547061   -4.7153552 
C    -1.9368553    4.5660295   -5.9033024 
C    -1.2760141    4.0361049   -7.0463346 
C    -0.6519436    2.8000479   -6.9869565 
H    -2.4578380    4.2631320   -3.8306361 
H    -2.4311472    5.5409172   -5.9687829 
H    -1.2683140    4.6096294   -7.9790816 
H    -0.1500910    2.3887209   -7.8696461 
