132
Energy =
C     1.4622455   -3.1412626   -0.4046952 
C     1.2819700   -3.1973438    1.0018469 
C     0.0068638   -3.4022638    1.5894592 
H     2.1277823   -2.9415409    1.6524086 
Pd    0.0207244   -1.5341804    0.2983845 
P    -1.5934520   -0.2640880    1.4761464 
P     0.2808953    0.0646066   -1.3748212 
H     0.7268252   -3.6675974   -1.0312583 
H    -0.7494742   -3.9246945    0.9839092 
C     5.2035925   -2.3632527   -2.3952032 
C     5.0303109   -1.9612691   -1.0599377 
C     3.8234085   -2.2097004   -0.3978712 
C     2.7591029   -2.8721765   -1.0549844 
C     2.9624683   -3.2955019   -2.3864943 
C     4.1659526   -3.0376178   -3.0539058 
H     6.1448893   -2.1569327   -2.9147857 
H     5.8425773   -1.4493197   -0.5327698 
H     3.7046059   -1.8755425    0.6387935 
H     2.1629712   -3.8355446   -2.9018612 
H     4.2882099   -3.3576331   -4.0937044 
C    -0.8291585   -3.4168919    5.8180688 
C     0.3303009   -2.7835396    5.3385314 
C     0.6208666   -2.7804792    3.9705353 
C    -0.2413029   -3.4121137    3.0431490 
C    -1.3941164   -4.0611514    3.5445330 
C    -1.6867598   -4.0613509    4.9145966 
H    -1.0553880   -3.4150907    6.8891014 
H     1.0106369   -2.2852518    6.0372810 
H     1.5190792   -2.2639063    3.6171963 
H    -2.0632898   -4.5786027    2.8474951 
H    -2.5845142   -4.5722549    5.2778139 
Fe   -2.4454407    2.2333785   -2.5257891 
C    -1.3810755    0.6212452   -1.8523170 
C    -2.4315516    0.9716523   -0.9088106 
C    -3.6842830    0.9024637   -1.6177246 
C    -3.4256325    0.5128560   -2.9721805 
C    -2.0117546    0.3534149   -3.1294309 
C    -1.2371627    3.8250631   -3.0044317 
C    -2.0078645    3.4107224   -4.1391300 
C    -3.3975679    3.5116595   -3.7918643 
C    -3.4858487    3.9835343   -2.4383058 
C    -2.1501276    4.1769179   -1.9495175 
C     1.0796658   -0.4508512   -2.9350929 
C     0.5374618   -1.5601091   -3.6172677 
C     1.1070989   -2.0239281   -4.8103384 
C     2.2708490   -1.3768512   -5.2902036 
C     2.8582264   -0.2896989   -4.6068392 
C     2.2338727    0.1735240   -3.4342689 
C     1.2708587    1.4280228   -0.6696772 
C     0.7489437    2.7137767   -0.4676624 
C     1.4877280    3.7020681    0.2100802 
C     2.7722072    3.3596088    0.6895488 
C     3.3340741    2.0764298    0.4735389 
C     2.5651720    1.1196264   -0.2019731 
C    -2.2429856    1.2704029    0.5609868 
H    -4.6676238    1.1382369   -1.2091253 
H    -4.1730273    0.4041828   -3.7601144 
H    -1.4911577    0.0790606   -4.0471811 
H    -0.1473646    3.8529270   -2.9537620 
H    -1.6072908    3.0646498   -5.0934614 
H    -4.2400488    3.2510072   -4.4350227 
H    -4.4070953    4.1554706   -1.8785997 
H    -1.8848957    4.5400831   -0.9547536 
H    -0.3349891   -2.0817790   -3.2043329 
H     2.6783717    1.0174634   -2.8967525 
H    -0.2481512    2.9403070   -0.8529464 
H     2.9793874    0.1197196   -0.3676741 
H    -1.3784046    1.9514846    0.6668923 
H    -0.7910615   -0.5572842    3.6879830 
H    -2.4752057   -2.2433398    2.3444952 
C    -4.8384594   -2.8918794    1.1013314 
C    -3.8317056   -1.7864936    0.7378483 
C    -3.0214744   -1.3532912    1.9803559 
C    -3.9321611   -0.9059851    3.1445025 
C    -4.9432195   -2.0207242    3.4816601 
C    -5.7586301   -2.4483530    2.2506733 
H    -4.2841291   -3.8023943    1.4045991 
H    -5.4320571   -3.1646321    0.2103145 
H    -4.3794333   -0.9177228    0.3288823 
H    -3.1452062   -2.1259506   -0.0610805 
H    -3.3228660   -0.6845471    4.0377601 
H    -4.4777124    0.0173013    2.8818168 
H    -4.3904306   -2.8950650    3.8770340 
H    -5.6126681   -1.6778622    4.2908509 
H    -6.3810172   -1.5970310    1.9097084 
H    -6.4573110   -3.2609098    2.5186222 
C    -0.6496438    1.8113167    5.1122132 
C    -1.4121637    1.5179522    3.8052568 
C    -0.7567874    0.3447548    3.0439141 
C     0.7286596    0.6729916    2.7596743 
C     1.4964625    0.9921011    4.0528072 
C     0.8283966    2.1304136    4.8393754 
H    -0.7212362    0.9287002    5.7777342 
H    -1.1360637    2.6494492    5.6428173 
H    -1.3839204    2.4228422    3.1677868 
H    -2.4710109    1.3093742    4.0288429 
H     1.2049054   -0.1698666    2.2226837 
H     0.7866768    1.5414692    2.0759589 
H     1.5334478    0.0854404    4.6872348 
H     2.5425690    1.2488149    3.8038779 
H     0.8939261    3.0669521    4.2509696 
H     1.3657578    2.3130146    5.7872536 
C    -3.4875929    1.9534404    1.1544925 
H    -3.7000414    2.8621572    0.5639013 
H    -4.3740408    1.3024627    1.0971560 
H    -3.3478953    2.2463286    2.2031959 
C     0.5673786   -3.2319584   -5.5375779 
H     0.1998404   -2.9659010   -6.5449812 
H     1.3622857   -3.9845620   -5.6824610 
H    -0.2653630   -3.6924024   -4.9816816 
C     4.1497004    0.3225522   -5.0947651 
H     4.7151565    0.7619937   -4.2568591 
H     4.7747119   -0.4408846   -5.5865943 
H     3.9658492    1.1280904   -5.8304208 
O     2.9019809   -1.9251319   -6.3862464 
C     2.6639380   -1.2835099   -7.6473313 
H     3.2212790   -1.8624297   -8.3986604 
H     1.5865486   -1.2911443   -7.8999339 
H     3.0258316   -0.2384025   -7.6469718 
C     0.9355939    5.0955192    0.4048697 
H     1.7526261    5.8189888    0.5535935 
H     0.3430692    5.4105774   -0.4698258 
H     0.2725745    5.1460833    1.2895282 
C     4.7260848    1.7692849    0.9725734 
H     4.7378232    1.6505854    2.0723009 
H     5.1079528    0.8368457    0.5275130 
H     5.4171569    2.5946975    0.7339991 
O     3.5482041    4.3095980    1.3164570 
C     3.3120656    4.4895885    2.7184170 
H     4.0168140    5.2641230    3.0552867 
H     2.2763199    4.8259959    2.9152568 
H     3.4975231    3.5536042    3.2785574 
