124
Energy =
C     1.2708084    1.0454260   -2.9885717 
C     2.3509094    0.2668035   -2.4939967 
C     2.2177801   -1.1346576   -2.2847764 
H     3.2500221    0.7802495   -2.1288570 
Pd    0.6934991    0.0248987   -1.0813971 
P     0.2186280   -1.5162305    0.5962642 
P    -0.8516286    1.6192498   -0.3689536 
H     0.5190141    0.5312537   -3.6078913 
H     1.4885230   -1.6695532   -2.9123364 
C     1.4239047    5.3033083   -3.5608192 
C     2.0635827    4.7286426   -2.4491079 
C     2.0175322    3.3456318   -2.2495535 
C     1.3210370    2.5108767   -3.1532624 
C     0.6581675    3.1032710   -4.2491492 
C     0.7221880    4.4861682   -4.4588613 
H     1.4668700    6.3857302   -3.7204993 
H     2.5976086    5.3621941   -1.7333754 
H     2.5013660    2.9107462   -1.3687196 
H     0.0907144    2.4718962   -4.9413602 
H     0.2104787    4.9284581   -5.3195724 
C     5.4516117   -3.5617120   -0.8249612 
C     4.4749988   -4.1083725   -1.6699230 
C     3.4008262   -3.3213798   -2.1039533 
C     3.2916655   -1.9669373   -1.7147047 
C     4.2604460   -1.4426426   -0.8258465 
C     5.3312233   -2.2295710   -0.3934092 
H     6.2894546   -4.1770126   -0.4843886 
H     4.5485636   -5.1522219   -1.9892503 
H     2.6496660   -3.7487181   -2.7781137 
H     4.1705017   -0.4138175   -0.4598802 
H     6.0683854   -1.8031222    0.2943453 
Fe   -2.3851819   -1.2359614    3.0425722 
C    -0.6823818   -0.8176395    2.0136992 
C    -1.6421313    0.2783970    1.9268089 
C    -1.8907874    0.7285891    3.2712215 
C    -1.1381521   -0.0844946    4.1785625 
C    -0.4032586   -1.0479723    3.4180403 
C    -4.3694150   -1.4602254    2.5684966 
C    -3.6039896   -2.5576747    2.0577882 
C    -2.9506064   -3.1992695    3.1671062 
C    -3.3135326   -2.4914221    4.3603981 
C    -4.1865524   -1.4142078    3.9908626 
C     1.7015818   -2.2691830    1.3612742 
C     2.1330233   -3.5861826    1.1189587 
C     3.3076335   -4.0582772    1.7213331 
C     4.0999179   -3.2139336    2.5107619 
C     3.6987920   -1.8850422    2.6995269 
C     2.5030352   -1.4155070    2.1436853 
C    -0.8176876   -2.8652858   -0.0942937 
C    -1.0372879   -4.1014495    0.5402912 
C    -1.9238074   -5.0275588   -0.0258056 
C    -2.6347460   -4.7200205   -1.1988398 
C    -2.4258423   -3.4814660   -1.8173815 
C    -1.5046898   -2.5703961   -1.2817862 
C    -2.2434246    0.8462344    0.6665871 
H    -2.5782155    1.5244290    3.5592982 
H    -1.1556755   -0.0111106    5.2673206 
H     0.2650723   -1.8118143    3.8177477 
H    -4.9787743   -0.7756258    1.9763927 
H    -3.5351190   -2.8500965    1.0088919 
H    -2.3138824   -4.0819913    3.1193565 
H    -2.9671740   -2.7178657    5.3704179 
H    -4.6162829   -0.6750534    4.6694330 
H     1.5702856   -4.2577344    0.4670406 
H     2.1993297   -0.3787115    2.3211317 
H    -0.5376797   -4.3438652    1.4819226 
H    -1.3240170   -1.6111193   -1.7832701 
H    -2.5913094    0.0103769    0.0304381 
C    -3.4132298    1.8057931    0.9212502 
H    -4.1990301    1.2839271    1.4927449 
H    -3.0953608    2.6806673    1.5107343 
H    -3.8458635    2.1613949   -0.0271537 
C     3.6957319   -5.5146664    1.5667814 
F     3.1756563   -6.0571317    0.4399184 
F     5.0384014   -5.6740692    1.5242875 
F     3.2375728   -6.2439578    2.6112194 
C     4.5972527   -0.9000792    3.4104915 
F     3.8904779   -0.0685868    4.2153040 
F     5.5404346   -1.5034980    4.1561380 
F     5.2399952   -0.1091008    2.5005205 
C    -2.0864710   -6.3866384    0.6264177 
F    -3.2781096   -6.9435131    0.3335978 
F    -1.1187387   -7.2364465    0.2151244 
F    -1.9877318   -6.2942764    1.9783167 
C    -3.2084324   -3.0561536   -3.0400339 
F    -4.0527616   -2.0313142   -2.7245404 
F    -2.3852383   -2.5846749   -4.0108589 
F    -3.9454391   -4.0516585   -3.5588353 
H     5.0285506   -3.5804839    2.9548188 
H    -3.3467716   -5.4359528   -1.6169019 
C    -3.1277531    3.5104619   -3.9105212 
C    -3.1948335    2.1200784   -3.6785917 
C    -2.4940840    1.5989169   -2.5797742 
C    -1.7402557    2.4436122   -1.7344138 
C    -1.6685668    3.8189307   -2.0033074 
C    -2.3768823    4.3698202   -3.0913494 
H    -3.6707003    3.9311533   -4.7657464 
H    -2.5406590    0.5198170   -2.3861938 
H    -1.0363652    4.4696748   -1.3922561 
C    -4.0018326    1.2216632   -4.5899120 
H    -3.8929144    0.1603397   -4.3159550 
H    -5.0757656    1.4782526   -4.5422045 
H    -3.6878900    1.3426478   -5.6420827 
C    -2.3331426    5.8577253   -3.3570513 
H    -1.4055363    6.3068465   -2.9657074 
H    -2.3978189    6.0766935   -4.4360742 
H    -3.1855620    6.3646466   -2.8666876 
C     1.2647751    4.5099325    2.5464275 
C    -0.0213850    4.8683439    2.0950017 
C    -0.6783431    4.0167402    1.1881856 
C    -0.0538612    2.8363184    0.7354985 
C     1.2327016    2.5077819    1.2062851 
C     1.9092775    3.3339791    2.1209485 
H     1.7816986    5.1725702    3.2515061 
H    -1.6755102    4.2901770    0.8297142 
H     1.7132703    1.5899970    0.8395805 
C    -0.6753294    6.1435286    2.5797599 
H    -0.0443276    7.0214945    2.3531683 
H    -1.6602986    6.2992427    2.1102680 
H    -0.8178426    6.1212570    3.6753225 
C     3.2761865    2.9548166    2.6457592 
H     3.7815558    2.2314138    1.9849222 
H     3.9256992    3.8399191    2.7529852 
H     3.1959849    2.4829023    3.6420467 
