104
Energy =
C    -1.2931989   -2.1595278   -2.5062013 
C     0.1295096   -2.2262054   -2.5126077 
C     0.8687092   -2.7793682   -1.4446308 
H     0.6722075   -1.7315225   -3.3270983 
Pd   -0.3924200   -0.9722163   -0.7760572 
P     1.2842613   -0.0533740    0.5588125 
P    -2.1718822    0.3350367    0.0907047 
H    -1.8321377   -2.9302265   -1.9371162 
H     0.3258482   -3.4255084   -0.7379483 
C    -3.4937162   -0.4511246   -5.7962981 
C    -2.2146648    0.0367950   -5.4804001 
C    -1.4963234   -0.5090515   -4.4124300 
C    -2.0357194   -1.5625734   -3.6358180 
C    -3.3161697   -2.0538255   -3.9775828 
C    -4.0391664   -1.5006071   -5.0423058 
H    -4.0588367   -0.0177650   -6.6276502 
H    -1.7807814    0.8551341   -6.0645286 
H    -0.5134254   -0.0956888   -4.1602742 
H    -3.7435071   -2.8859959   -3.4072050 
H    -5.0296775   -1.8967123   -5.2889221 
C     5.1219749   -3.4097478   -1.3785393 
C     4.3161525   -3.8503263   -0.3181904 
C     2.9357853   -3.6221326   -0.3463268 
C     2.3316665   -2.9376038   -1.4267613 
C     3.1611421   -2.4861063   -2.4804739 
C     4.5370222   -2.7279672   -2.4584918 
H     6.2004063   -3.5986585   -1.3668729 
H     4.7608589   -4.3857016    0.5270105 
H     2.3114070   -3.9876606    0.4746799 
H     2.7316435   -1.9491679   -3.3308390 
H     5.1595549   -2.3786612   -3.2880732 
Fe    0.9785569    2.8358100    2.7619969 
C     0.8739244    1.6413859    1.1003821 
C    -0.4568242    2.0930988    1.4810631 
C    -0.4307010    3.5340302    1.4862926 
C     0.8741284    3.9766572    1.0869275 
C     1.6852491    2.8189718    0.8616026 
C     2.1861348    3.9630815    3.9593947 
C     0.8161549    4.0889051    4.3670876 
C     0.3363208    2.7836287    4.7151708 
C     1.4042880    1.8474582    4.5147159 
C     2.5503346    2.5795300    4.0504807 
C     2.7675981    0.2403447   -0.4879323 
C     4.0666252   -0.1907256   -0.1671392 
C     5.1388146    0.1218418   -1.0170397 
C     4.9236061    0.8480344   -2.1954888 
C     3.6227035    1.2529497   -2.5375576 
C     2.5499373    0.9494481   -1.6917130 
C     1.8252125   -1.0522963    1.9966753 
C     1.1620221   -2.2627860    2.2787499 
C     1.5457333   -3.0413522    3.3796327 
C     2.6018403   -2.6195316    4.2013374 
C     3.2657514   -1.4126343    3.9276881 
C     2.8746595   -0.6277752    2.8349065 
C    -1.6627292    1.2132201    1.7221653 
H    -1.2608391    4.1822739    1.7732677 
H     1.2061380    5.0141182    1.0180544 
H     2.7316573    2.8130187    0.5537445 
H     2.8299040    4.7744925    3.6148176 
H     0.2348456    5.0126931    4.3873610 
H    -0.6703801    2.5518871    5.0677903 
H     1.3558926    0.7704376    4.6805397 
H     3.5329734    2.1692346    3.8144608 
H     4.2492653   -0.7900039    0.7281417 
H     1.5366394    1.2753522   -1.9536953 
H     0.3351124   -2.5849328    1.6347947 
H     3.3751160    0.3232318    2.6344326 
H     6.1455740   -0.2210920   -0.7579243 
H     3.4446659    1.8106875   -3.4629329 
H     1.0201052   -3.9771998    3.5958185 
H     4.0849511   -1.0778201    4.5724647 
C    -3.6576196   -0.7893365    0.5957921 
C    -2.6889165    1.7934755   -1.0605887 
C    -4.4588419   -1.2506296   -0.6414569 
H    -5.0682409   -2.1262340   -0.3526434 
H    -5.1476363   -0.4791769   -1.0110052 
H    -3.8012272   -1.5535728   -1.4687322 
C    -1.3732247    2.2960176   -1.7065640 
H    -1.6049480    3.1579085   -2.3590443 
H    -0.6269741    2.6221518   -0.9665808 
H    -0.9273282    1.5041373   -2.3336804 
C    -3.0488324   -2.0743917    1.2174896 
H    -3.8743472   -2.7360033    1.5382864 
H    -2.4498500   -2.6200269    0.4660858 
H    -2.4084354   -1.8904285    2.0901166 
C    -4.6250828   -0.0927164    1.5761602 
H    -5.4469174   -0.7904279    1.8214376 
H    -4.1507133    0.2007187    2.5256233 
H    -5.0797580    0.8040396    1.1231278 
C    -3.6184969    1.3235008   -2.1998774 
H    -3.6214423    2.1035132   -2.9823907 
H    -3.2792133    0.3897081   -2.6692773 
H    -4.6566805    1.1977318   -1.8590735 
C    -3.3928677    2.9406397   -0.3069370 
H    -3.7036260    3.7033690   -1.0442322 
H    -4.3021518    2.5968297    0.2141333 
H    -2.7351682    3.4393371    0.4185006 
H     5.7643803    1.0889127   -2.8541672 
H     2.9048207   -3.2281291    5.0595595 
H    -2.5133428    1.8688499    1.9743729 
C    -1.4282024    0.2522351    2.9017419 
H    -1.0455832    0.8431718    3.7453586 
H    -2.3493543   -0.2520309    3.2258119 
H    -0.6716630   -0.5127557    2.6705536 
