104
Energy =
C     0.8267131    3.4364496    0.3404068 
C     1.9026858    2.7610968   -0.3058447 
C     1.7612415    2.2542404   -1.6149384 
H     2.8167865    2.5358031    0.2574949 
Pd    0.2792602    1.2725164   -0.1454805 
P     0.7924745   -0.9216347   -0.7427681 
P    -1.7974720    0.8042284    0.9469098 
H     0.1336081    3.9851867   -0.3093078 
H     0.8879833    2.5967747   -2.1927718 
C     1.0534238    4.9158303    4.3776754 
C     1.8031153    3.7879685    4.0031975 
C     1.7390798    3.3013478    2.6937984 
C     0.9239248    3.9340778    1.7243883 
C     0.1855211    5.0755341    2.1131167 
C     0.2477445    5.5592517    3.4259606 
H     1.1004766    5.2918871    5.4046764 
H     2.4351531    3.2814696    4.7402344 
H     2.3089444    2.4050045    2.4239267 
H    -0.4385118    5.5884932    1.3731559 
H    -0.3317438    6.4449674    3.7063527 
C     4.8507390    0.5997126   -4.1034864 
C     3.5117369    0.6001364   -4.5283906 
C     2.5176970    1.1385803   -3.7056558 
C     2.8318595    1.6583722   -2.4270303 
C     4.1842107    1.6465631   -2.0123597 
C     5.1820368    1.1353142   -2.8487771 
H     5.6341778    0.1963636   -4.7533830 
H     3.2437254    0.1938730   -5.5089405 
H     1.4803420    1.1578970   -4.0527737 
H     4.4646285    2.0548669   -1.0370794 
H     6.2250118    1.1502697   -2.5167611 
Fe   -1.1629265   -3.8295917   -0.0887386 
C    -0.0744329   -2.1530291    0.2799993 
C    -1.4393397   -1.9968183    0.7547428 
C    -1.6795203   -3.0476002    1.7123846 
C    -0.4899147   -3.8407627    1.8315595 
C     0.4987225   -3.3043760    0.9447386 
C    -2.7491751   -4.2711265   -1.3222490 
C    -1.5589042   -4.0648184   -2.0910680 
C    -0.5740485   -5.0117376   -1.6463795 
C    -1.1605317   -5.8018071   -0.6012740 
C    -2.5042401   -5.3400740   -0.3965554 
C     2.5501043   -1.1817867   -0.2806488 
C     3.5954685   -1.3493184   -1.2078903 
C     4.9154149   -1.5129282   -0.7573225 
C     5.2098344   -1.4801837    0.6107090 
C     4.1759328   -1.2732711    1.5404195 
C     2.8569029   -1.1246600    1.1005352 
C     0.5643808   -1.3985152   -2.4956304 
C    -0.3633054   -0.6591961   -3.2557957 
C    -0.6314926   -1.0106175   -4.5867214 
C     0.0421656   -2.0931181   -5.1728391 
C     0.9668712   -2.8350972   -4.4193952 
C     1.2190151   -2.5001569   -3.0826119 
C    -2.3969556   -0.9131016    0.3256662 
H    -2.6183983   -3.2397778    2.2334421 
H    -0.3738095   -4.7276737    2.4569624 
H     1.5110780   -3.6828370    0.7974250 
H    -3.6810260   -3.7136154   -1.4288709 
H    -1.4277523   -3.3176930   -2.8741830 
H     0.4408453   -5.1154548   -2.0312912 
H    -0.6637239   -6.5961759   -0.0411351 
H    -3.2081362   -5.7221454    0.3450772 
H     3.3953681   -1.3368026   -2.2827670 
H     2.0545662   -0.9772275    1.8303865 
H    -0.8679231    0.2003064   -2.7983071 
H     1.9160631   -3.1032746   -2.4934584 
H    -2.2653125   -0.7856864   -0.7646297 
C    -3.8605537   -1.3217846    0.5804615 
H    -3.9909825   -2.3530724    0.2143308 
H    -4.1317530   -1.3086056    1.6448929 
H    -4.5685598   -0.6809308    0.0361828 
H     5.7156917   -1.6515557   -1.4911490 
H     4.3975980   -1.2353153    2.6120762 
H    -1.3583078   -0.4341935   -5.1683272 
H     1.4843449   -3.6869607   -4.8725157 
C    -3.1679750    2.0189815    0.3517732 
C    -1.6631783    0.7413459    2.8588696 
C    -2.6317324    3.4668624    0.3979572 
H    -3.4506898    4.1544111    0.1179430 
H    -2.2664689    3.7619704    1.3918504 
H    -1.8155502    3.6048378   -0.3270776 
C    -1.6675354    2.1760703    3.4258212 
H    -1.4037629    2.1291656    4.4977661 
H    -0.9225054    2.8173737    2.9331833 
H    -2.6575294    2.6534967    3.3506546 
C    -3.4392440    1.6869329   -1.1362444 
H    -4.0814708    2.4765793   -1.5664973 
H    -2.4963290    1.6708547   -1.7146763 
H    -3.9567025    0.7259358   -1.2825892 
C    -4.4735664    1.9541219    1.1755761 
H    -5.2225142    2.6115752    0.6965640 
H    -4.9060633    0.9458600    1.2318036 
H    -4.3238108    2.3245598    2.2021981 
C    -2.7696892   -0.0827644    3.5474039 
H    -2.6159546   -0.0226585    4.6407503 
H    -3.7796304    0.3018414    3.3351798 
H    -2.7216663   -1.1461204    3.2689709 
C    -0.2873608    0.1007008    3.1642427 
H     0.5295092    0.6997838    2.7264960 
H    -0.1417712    0.0736404    4.2599061 
H    -0.2166112   -0.9319623    2.7857927 
H     6.2411839   -1.6077942    0.9553255 
H    -0.1572971   -2.3638750   -6.2147273 
