124
Energy =
C     0.1407615   -2.3170506   -2.2718143 
C     0.6926980   -1.1802826   -2.9158059 
C     1.9455719   -0.6398774   -2.5285441 
H     0.0953262   -0.6380410   -3.6592756 
Pd    0.4561842   -0.6074427   -0.7998663 
P     1.4401571    1.1304104    0.4772249 
P    -1.1656823   -1.1607131    0.8126778 
H     0.8398868   -2.9685919   -1.7267576 
H     2.6539106   -1.3239802   -2.0389379 
C    -3.4430142   -4.3775218   -3.4590062 
C    -2.5865702   -4.9209603   -2.4912330 
C    -1.4422251   -4.2221392   -2.0928347 
C    -1.1219585   -2.9660164   -2.6571910 
C    -2.0060554   -2.4235603   -3.6214107 
C    -3.1489160   -3.1237900   -4.0185318 
H    -4.3437096   -4.9191311   -3.7635760 
H    -2.8150105   -5.8913200   -2.0400057 
H    -0.7773380   -4.6538238   -1.3366234 
H    -1.7889595   -1.4581340   -4.0896992 
H    -3.8158964   -2.6906480   -4.7708621 
C     3.8314735    2.6149065   -4.6085362 
C     2.4331404    2.5914911   -4.4823034 
C     1.8067551    1.5517177   -3.7893646 
C     2.5659415    0.5192811   -3.1927490 
C     3.9741324    0.5752334   -3.2978232 
C     4.5992290    1.6028644   -4.0141221 
H     4.3198566    3.4223562   -5.1635109 
H     1.8282144    3.3862991   -4.9304122 
H     0.7154337    1.5411837   -3.7111250 
H     4.5784539   -0.2119474   -2.8326959 
H     5.6900895    1.6153332   -4.1065982 
Fe   -2.4347848    1.8705441   -0.1151253 
C    -1.9302245    0.4354875    1.2477816 
C    -1.1749819    1.6536563    1.5012696 
C    -2.1347567    2.7036806    1.7259637 
C    -3.4546857    2.1596751    1.6233340 
C    -3.3374241    0.7649014    1.3239442 
C    -3.5667293    2.9867139   -1.3926158 
C    -2.1897954    3.3801981   -1.4721835 
C    -1.4214306    2.2314943   -1.8646129 
C    -2.3266455    1.1322025   -2.0319335 
C    -3.6521503    1.5967988   -1.7379730 
C     0.2948971    1.8014159    1.8324755 
H    -1.8819604    3.7437297    1.9434658 
H    -4.3891221    2.7150531    1.7219193 
H    -4.1639893    0.0696698    1.1697317 
H    -4.4011729    3.6270027   -1.1013311 
H    -1.8022476    4.3785263   -1.2677232 
H    -0.3421882    2.1995624   -2.0105309 
H    -2.0501681    0.1161247   -2.3189033 
H    -4.5666297    1.0009816   -1.7538897 
H     0.5041762    2.8839939    1.8707077 
C     0.5920724    1.2019238    3.2271286 
H    -0.1992200    1.5164062    3.9288027 
H     0.6085611    0.1031866    3.2044848 
H     1.5612712    1.5481264    3.6148343 
C     5.3948953   -0.5257391    2.3810376 
C     4.5919782   -1.2909860    1.5169075 
C     3.4193666   -0.7477551    0.9847597 
C     3.0003101    0.5641527    1.2838508 
C     3.8230302    1.3721814    2.1201067 
C     4.9892342    0.7943442    2.6544186 
H     4.8836664   -2.3151795    1.2588554 
H     2.8034413   -1.3476724    0.3056801 
H     5.6174941    1.4119531    3.3084916 
C     2.8927836    5.0278513   -1.5764452 
C     1.5579726    4.9507956   -1.1433101 
C     1.1202497    3.7602567   -0.5330470 
C     1.9866534    2.6614726   -0.3893460 
C     3.3147507    2.7597710   -0.8518612 
C     3.7891004    3.9522602   -1.4223178 
H     3.2533277    5.9603764   -2.0274765 
H     0.0943488    3.6946422   -0.1578862 
H     4.0024604    1.9188408   -0.7214460 
C     6.6504987   -1.0898204    3.0043800 
H     6.5064253   -1.2522463    4.0887855 
H     6.9305827   -2.0549347    2.5520170 
H     7.4997276   -0.3933275    2.8917460 
C     3.5622542    2.8330085    2.4275819 
H     4.2440036    3.4676117    1.8324442 
H     2.5416976    3.1572488    2.1827789 
H     3.7529501    3.0473926    3.4930633 
C     0.6069138    6.1124573   -1.3328066 
H     1.1463354    7.0714174   -1.4017764 
H     0.0256149    5.9928852   -2.2669429 
H    -0.1145423    6.1832311   -0.5004222 
C     5.2450574    4.1078055   -1.8004942 
H     5.3554312    4.5567312   -2.8023497 
H     5.7585126    4.7762727   -1.0841297 
H     5.7690914    3.1390261   -1.7966737 
C     0.9668065   -3.0482411    4.5120561 
C     1.5284319   -3.0649902    3.2482750 
C     0.8186650   -2.5003580    2.1602152 
C    -0.4401039   -1.9278502    2.3239898 
H     1.5132375   -3.4601682    5.3676089 
H     2.5236218   -3.4887700    3.0830948 
H     1.2731351   -2.4935603    1.1646789 
C    -1.0760647   -1.9536359    3.6180512 
C    -0.3366463   -2.5099461    4.7287951 
C    -0.9307837   -2.5232112    6.0251138 
C    -2.2084074   -2.0297841    6.2285275 
C    -2.9463726   -1.5095351    5.1344474 
C    -2.3940141   -1.4722096    3.8634037 
H    -0.3575770   -2.9413294    6.8598523 
H    -2.6546893   -2.0492300    7.2279564 
H    -3.9638845   -1.1377424    5.2934610 
H    -2.9839556   -1.0793592    3.0343264 
C    -3.5253409   -1.8813467   -0.5232659 
C    -2.5756049   -2.2670798    0.4190369 
C    -2.6903103   -3.5462676    1.0452828 
C    -3.7567484   -4.3766573    0.7497945 
H    -3.4391933   -0.9105144   -1.0121136 
H    -1.9386737   -3.8662866    1.7723212 
H    -3.8400671   -5.3512123    1.2432395 
C    -4.7551874   -3.9931539   -0.1916939 
C    -4.6336572   -2.7121807   -0.8406427 
C    -5.6197727   -2.3218891   -1.7945760 
C    -6.6794498   -3.1599830   -2.0976649 
C    -6.7961974   -4.4270221   -1.4619616 
C    -5.8555218   -4.8341914   -0.5291835 
H    -5.5180141   -1.3527416   -2.2950760 
H    -7.4309995   -2.8524740   -2.8321946 
H    -7.6377384   -5.0811778   -1.7125960 
H    -5.9470913   -5.8093864   -0.0384405 
