104
Energy =
C     0.7871467    0.8096837    2.9763275 
C     2.0824150    0.3218165    2.6622512 
C     2.9336051    0.9985202    1.7588510 
H     2.3993423   -0.6452472    3.0715359 
Pd    0.9259959    0.3252091    0.7644932 
P     1.4315694    0.0918198   -1.5496841 
P    -1.4117493    0.1777829    0.5382700 
H     0.6015991    1.8818333    2.8114560 
H     2.7095072    2.0590839    1.5700355 
C    -1.8199850   -0.9302905    5.9253900 
C    -1.9108576    0.4294164    5.5972440 
C    -1.0665873    0.9759223    4.6227829 
C    -0.1076942    0.1761514    3.9622010 
C    -0.0205655   -1.1916274    4.3130129 
C    -0.8686918   -1.7383588    5.2792534 
H    -2.4822182   -1.3606408    6.6836506 
H    -2.6445706    1.0695568    6.0979377 
H    -1.1445963    2.0381876    4.3676336 
H     0.7122692   -1.8384491    3.8198478 
H    -0.7909985   -2.8011379    5.5306634 
C     7.0176816   -0.0673571    0.9102878 
C     6.5601341    1.2433607    0.7083166 
C     5.2293132    1.5736733    0.9898156 
C     4.3226814    0.6010367    1.4740559 
C     4.8072067   -0.7106065    1.6932948 
C     6.1364417   -1.0399128    1.4118504 
H     8.0570883   -0.3289545    0.6878042 
H     7.2435681    2.0128495    0.3349127 
H     4.8844462    2.6026878    0.8404170 
H     4.1380017   -1.4857089    2.0804432 
H     6.4892160   -2.0621322    1.5835136 
Fe   -3.2858774   -0.1353459   -2.5897384 
C    -1.9998363    0.5647756   -1.1498214 
C    -1.2763521    0.2490409   -2.3714469 
C    -1.8595164    1.0308704   -3.4315435 
C    -2.9129177    1.8371289   -2.8836793 
C    -3.0138039    1.5451309   -1.4852148 
C    -5.2185967   -0.2853334   -3.2261921 
C    -4.3214794   -0.8190121   -4.2108736 
C    -3.5911640   -1.8955584   -3.6076681 
C    -4.0291273   -2.0238787   -2.2481147 
C    -5.0381422   -1.0281593   -2.0133258 
C    -2.2713064    1.4727393    1.5269619 
C    -3.2867178    1.2041274    2.4626143 
C    -3.9006255    2.2583736    3.1586434 
C    -3.4918491    3.5810925    2.9479899 
C    -2.4589475    3.8538913    2.0342301 
C    -1.8540365    2.8082155    1.3280059 
C    -2.1093960   -1.4300291    1.0717835 
C    -1.2423055   -2.4320955    1.5458242 
C    -1.7514238   -3.6719580    1.9556773 
C    -3.1316379   -3.9146175    1.9011073 
C    -4.0023896   -2.9196837    1.4265579 
C    -3.4937015   -1.6836839    1.0074003 
C    -0.0695796   -0.6479348   -2.4815955 
H    -1.5595351    0.9983622   -4.4809045 
H    -3.5579006    2.5168819   -3.4433782 
H    -3.7204437    1.9887843   -0.7826666 
H    -5.8995568    0.5559540   -3.3680127 
H    -4.2004063   -0.4546076   -5.2327127 
H    -2.8319687   -2.5036223   -4.1030085 
H    -3.6590933   -2.7448892   -1.5181281 
H    -5.5859046   -0.8633620   -1.0844053 
H    -3.5897404    0.1757735    2.6738689 
H    -1.0582414    3.0272764    0.6081943 
H    -0.1642919   -2.2349191    1.5766834 
H    -4.1657747   -0.9153151    0.6159056 
H    -4.6907281    2.0348020    3.8828793 
H    -2.1277295    4.8843646    1.8690910 
H    -1.0699585   -4.4478265    2.3194100 
H    -5.0794578   -3.1104991    1.3757968 
C     2.8459222   -1.1565338   -1.9850906 
C     1.7343546    1.8282146   -2.3281910 
C     2.7023325   -1.7695043   -3.3967222 
H     3.5737859   -2.4249362   -3.5787128 
H     1.8016309   -2.3893575   -3.5200672 
H     2.7039408   -0.9963847   -4.1827291 
C     1.7072346    1.7950215   -3.8682767 
H     1.8705409    2.8180788   -4.2544794 
H     2.5077475    1.1560354   -4.2772138 
H     0.7402308    1.4455574   -4.2628653 
C     4.2395019   -0.4980444   -1.9060699 
H     4.9986731   -1.3007444   -1.9171672 
H     4.4361740    0.1504227   -2.7738444 
H     4.3859523    0.0791284   -0.9832479 
C     2.7899073   -2.2567840   -0.8962943 
H     3.5877017   -2.9965540   -1.0924321 
H     2.9681117   -1.8200846    0.1000332 
H     1.8308797   -2.7941508   -0.8671478 
C     0.6350083    2.7710529   -1.7780703 
H     0.7978769    3.7799596   -2.1995745 
H    -0.3855056    2.4602322   -2.0345212 
H     0.7159045    2.8486125   -0.6781630 
C     3.0761280    2.4211431   -1.8404038 
H     3.0633039    3.5088269   -2.0350998 
H     3.2091772    2.2748982   -0.7571690 
H     3.9500991    2.0050305   -2.3571142 
H    -3.9690212    4.3991506    3.4972750 
H    -3.5311017   -4.8816547    2.2236548 
H     0.2217562   -0.6891667   -3.5449046 
C    -0.3839948   -2.0751508   -1.9903704 
H    -1.3453198   -2.3832360   -2.4238296 
H     0.3811694   -2.8048865   -2.2896992 
H    -0.4893562   -2.1176139   -0.8955517 
