112
Energy =
C     2.1067680    2.6283221    0.2464668 
C     0.7850861    3.1248647    0.3616136 
C    -0.0062058    2.8153990    1.5010388 
H     0.3334428    3.6520449   -0.4870392 
Pd    0.5887474    0.9223367    0.3446551 
P    -0.8848607   -0.7340322    1.1506174 
P     1.7374599   -0.5009322   -1.0758847 
H     2.5874720    2.3131641    1.1847380 
H     0.5405164    2.5540990    2.4179079 
C     4.9688818    3.4483329   -2.8534979 
C     5.3514633    2.7835872   -1.6794839 
C     4.4017261    2.5109446   -0.6887282 
C     3.0497276    2.8952326   -0.8495649 
C     2.6773038    3.5501997   -2.0462985 
C     3.6281021    3.8274304   -3.0321178 
H     5.7099134    3.6700009   -3.6283608 
H     6.3937560    2.4833806   -1.5305651 
H     4.7092713    2.0007217    0.2299328 
H     1.6380729    3.8510668   -2.2086443 
H     3.3217996    4.3400888   -3.9492823 
C    -4.0588119    4.0710025    2.2388668 
C    -3.4732274    4.3172773    0.9856363 
C    -2.1538687    3.9292888    0.7318374 
C    -1.3831774    3.2858498    1.7279744 
C    -1.9753607    3.0784942    2.9955395 
C    -3.2994163    3.4569451    3.2469700 
H    -5.0943319    4.3691489    2.4313708 
H    -4.0525010    4.8126589    0.1995038 
H    -1.7279782    4.1151893   -0.2593955 
H    -1.3834339    2.6123258    3.7906885 
H    -3.7378823    3.2799373    4.2346809 
Fe   -0.7962771   -2.5187682   -2.6107046 
C     0.8782918   -2.0323027   -1.5367865 
C    -0.0533825   -2.7681872   -0.6971128 
C    -0.2881983   -4.0344973   -1.3431756 
C     0.4832742   -4.0940605   -2.5489792 
C     1.1913159   -2.8565228   -2.6847158 
C    -1.2119800   -1.3307794   -4.2234351 
C    -1.4745668   -2.7064098   -4.5266409 
C    -2.4580521   -3.1891472   -3.6007314 
C    -2.8109327   -2.1090094   -2.7303155 
C    -2.0370830   -0.9590379   -3.1081301 
C     3.3277639   -1.1081699   -0.3734164 
C     3.7540519   -0.6099092    0.8745886 
C     4.9371794   -1.0770286    1.4629870 
C     5.7061522   -2.0516472    0.8101387 
C     5.2799286   -2.5683776   -0.4234006 
C     4.0936378   -2.1077583   -1.0103488 
C     2.1005607    0.2839675   -2.6952523 
C     3.3494811    0.2271070   -3.3394033 
C     3.5096052    0.8110221   -4.6053041 
C     2.4343290    1.4570994   -5.2310680 
C     1.1965489    1.5486248   -4.5750357 
C     1.0336919    0.9733472   -3.3092077 
C    -0.3859582   -2.5077102    0.7599280 
H    -0.9528017   -4.8158778   -0.9679754 
H     0.4847933   -4.9150358   -3.2686399 
H     1.8317258   -2.5626425   -3.5193144 
H    -0.4949961   -0.6924517   -4.7398077 
H    -0.9827374   -3.2946764   -5.3036270 
H    -2.8518862   -4.2059523   -3.5530118 
H    -3.5449167   -2.1614271   -1.9268854 
H    -2.0775319    0.0241335   -2.6371425 
H     3.1379619    0.1323068    1.3941424 
H     3.7599999   -2.5390102   -1.9589078 
H     4.2015672   -0.2573670   -2.8546230 
H     0.0749771    1.0545610   -2.7848777 
H    -1.2681990   -3.1203353    1.0227879 
C     0.8247643   -2.9866943    1.5981397 
H     1.6986245   -2.3323635    1.4458954 
H     0.5969666   -3.0235471    2.6740705 
H     1.1093040   -4.0019194    1.2742080 
H     5.2544786   -0.6842480    2.4345699 
H     5.8695812   -3.3405590   -0.9282680 
H     4.4855319    0.7654326   -5.0991633 
H     0.3602203    2.0757782   -5.0464189 
H     6.6308492   -2.4183259    1.2675233 
H     2.5657318    1.9075510   -6.2202562 
H    -2.4323488   -1.1382150   -0.5429842 
C    -4.3548485    0.9311165   -0.5840129 
C    -3.0097637    0.8306072    0.1545349 
C    -2.6057041   -0.6308471    0.4229831 
C    -3.7279275   -1.3707924    1.1829348 
C    -5.0782201   -1.2631329    0.4455444 
C    -5.4653183    0.2008776    0.1860211 
H    -4.2595190    0.4910981   -1.5959164 
H    -4.6138897    1.9960486   -0.7214227 
H    -3.0941522    1.3642260    1.1182065 
H    -2.2104070    1.3403398   -0.4152037 
H    -3.4692238   -2.4341904    1.3360580 
H    -3.8473013   -0.9140824    2.1829769 
H    -5.0205961   -1.8048265   -0.5187193 
H    -5.8573247   -1.7728229    1.0401004 
H    -5.6301395    0.7119406    1.1551609 
H    -6.4199106    0.2528043   -0.3671069 
H    -1.6916131    0.2841315    3.1130247 
C     0.1587616    0.1562323    5.1563327 
C     0.3368911   -0.2076461    3.6714800 
C    -1.0166706   -0.5924732    3.0218585 
C    -1.6522631   -1.7709657    3.7999119 
C    -1.8402915   -1.3953845    5.2832938 
C    -0.5122694   -0.9846338    5.9377502 
H    -0.4646151    1.0689006    5.2354633 
H     1.1401314    0.4060297    5.5983422 
H     1.0415861   -1.0546930    3.5874324 
H     0.7968907    0.6305236    3.1184878 
H    -2.6176319   -2.0681538    3.3670241 
H    -0.9922296   -2.6551941    3.7366499 
H    -2.5628894   -0.5581920    5.3542675 
H    -2.2905886   -2.2474522    5.8232061 
H     0.1679460   -1.8589177    5.9599709 
H    -0.6763944   -0.6858051    6.9882772 
