132
Energy =
C     2.0358036   -1.4577881   -2.5956535 
C     2.0680745   -0.0443717   -2.6403128 
C     2.6437394    0.7200932   -1.5847067 
H     1.5343008    0.4758104   -3.4466854 
Pd    0.9269067   -0.4882542   -0.8212707 
P     0.5445272    0.7287394    1.1281495 
P    -1.0190532   -1.7952771   -0.4296573 
H     2.7815063   -1.9522763   -1.9535902 
H     3.4602110    0.2552172   -1.0131249 
C     0.5370735   -3.9410025   -5.7778423 
C    -0.0626330   -2.6950224   -5.5267997 
C     0.4063845   -1.8826154   -4.4894129 
C     1.4814640   -2.3008157   -3.6716717 
C     2.0691823   -3.5596330   -3.9311553 
C     1.6081083   -4.3670423   -4.9785971 
H     0.1715341   -4.5738376   -6.5929013 
H    -0.8988612   -2.3548267   -6.1467416 
H    -0.0700120   -0.9152708   -4.3039716 
H     2.9051943   -3.9004704   -3.3098954 
H     2.0845375   -5.3343874   -5.1679281 
C     2.6607328    5.0266974   -1.4965368 
C     3.7174342    4.2958958   -0.9354208 
C     3.7016972    2.8959308   -0.9730025 
C     2.6300371    2.1973172   -1.5673391 
C     1.5741090    2.9472823   -2.1360419 
C     1.5903071    4.3457196   -2.1012810 
H     2.6681323    6.1209477   -1.4625630 
H     4.5528483    4.8136894   -0.4531540 
H     4.5302004    2.3325121   -0.5326642 
H     0.7250199    2.4279887   -2.5958068 
H     0.7628799    4.9097355   -2.5455827 
Fe    1.7027324   -2.1007134    2.6808634 
C     0.4479438   -0.5036140    2.4513119 
C    -0.2763440   -1.7646024    2.3765228 
C    -0.0526918   -2.4434906    3.6304128 
C     0.8008162   -1.6409999    4.4532295 
C     1.1186815   -0.4483445    3.7312172 
C     2.4687710   -3.1551313    1.0966982 
C     3.3247604   -2.0492739    1.4091832 
C     3.7494502   -2.1797750    2.7727538 
C     3.1597617   -3.3773554    3.3017657 
C     2.3671446   -3.9804256    2.2656266 
C    -1.0231087    1.6712228    1.2044174 
C    -1.9517496    1.4737122    2.2407461 
C    -3.1637563    2.1876284    2.2727017 
C    -3.4043188    3.1387167    1.2541416 
C    -2.4608228    3.3960376    0.2306811 
C    -1.2861678    2.6295706    0.2050862 
C     1.8196648    1.9261041    1.6863898 
C     3.1153020    1.4520666    1.9726037 
C     4.1406801    2.3238918    2.3622880 
C     3.8501569    3.7064546    2.4390992 
C     2.5665018    4.2130657    2.1414772 
C     1.5581337    3.3033917    1.7758256 
C    -1.2892977   -2.2930010    1.3783117 
H    -0.4555426   -3.4249589    3.8908388 
H     1.1744951   -1.9078784    5.4433870 
H     1.7584518    0.3657171    4.0731580 
H     1.9816586   -3.3266823    0.1396233 
H     3.5992682   -1.2512420    0.7184195 
H     4.3945757   -1.4885540    3.3182303 
H     3.2755956   -3.7521573    4.3203612 
H     1.7803807   -4.8961920    2.3597163 
H    -1.7315797    0.7601167    3.0421726 
H    -0.5540359    2.7987733   -0.5915533 
H     3.3179480    0.3818840    1.9049425 
H     0.5641316    3.6951282    1.5425026 
H    -1.1219276   -3.3852244    1.3458435 
H    -1.3282851   -3.1155347   -2.4028580 
H    -2.4185936    0.1266604   -0.1944453 
C    -4.8125942   -0.0242263   -1.5028067 
C    -3.8495256   -1.1775439   -1.1612562 
C    -2.4108743   -0.6416177   -0.9910454 
C    -1.9773094    0.0516333   -2.3072994 
C    -2.9493354    1.1700219   -2.7195174 
C    -4.4007039    0.6764449   -2.8057131 
H    -4.8082355    0.7055414   -0.6695102 
H    -5.8429303   -0.4154807   -1.5810205 
H    -3.8711178   -1.9102342   -1.9893546 
H    -4.2017787   -1.6960118   -0.2574085 
H    -0.9551380    0.4640222   -2.1874039 
H    -1.9246253   -0.7093554   -3.1095036 
H    -2.8866377    1.9763306   -1.9683066 
H    -2.6255275    1.6033433   -3.6835225 
H    -4.5021959   -0.0361873   -3.6478814 
H    -5.0794918    1.5208944   -3.0244512 
C    -2.6287642   -5.5143219   -1.8147356 
C    -2.5046958   -4.2436152   -0.9509079 
C    -1.2482747   -3.4257712   -1.3415222 
C     0.0001008   -4.3215533   -1.1993085 
C    -0.1180029   -5.5989658   -2.0487297 
C    -1.3800316   -6.3994197   -1.6965376 
H    -2.7742742   -5.2187656   -2.8723712 
H    -3.5333563   -6.0727993   -1.5138869 
H    -2.4217552   -4.5478191    0.1107607 
H    -3.4219508   -3.6457749   -1.0402754 
H     0.8992791   -3.7568823   -1.4926559 
H     0.1216786   -4.6046653   -0.1344689 
H    -0.1498300   -5.3108782   -3.1155996 
H     0.7891292   -6.2156645   -1.9145831 
H    -1.2997597   -6.7806970   -0.6589901 
H    -1.4699694   -7.2837549   -2.3521688 
C    -2.7243568   -2.0593348    1.9076619 
H    -2.7728779   -2.3573655    2.9688959 
H    -3.0148625   -0.9984758    1.8427983 
H    -3.4589933   -2.6630028    1.3525039 
C    -4.1736794    1.9717814    3.3748920 
H    -4.6934934    2.9135763    3.6145128 
H    -4.9440782    1.2374384    3.0714143 
H    -3.6890568    1.5836743    4.2854655 
C    -2.7246543    4.4858513   -0.7814122 
H    -3.5812133    4.2384158   -1.4345432 
H    -2.9792126    5.4307196   -0.2716425 
H    -1.8439686    4.6495529   -1.4231493 
O    -4.5444608    3.9101533    1.2991569 
C    -5.7032167    3.3572639    0.6618229 
H    -6.5105712    4.0929552    0.7924117 
H    -5.5269662    3.1931968   -0.4187976 
H    -6.0019079    2.3983145    1.1260440 
C     5.5387243    1.8284384    2.6468343 
H     5.7822827    1.9050430    3.7225189 
H     5.6558222    0.7738525    2.3476390 
H     6.2842128    2.4393731    2.1097553 
C     2.2960967    5.6985993    2.1668721 
H     3.2038011    6.2606462    1.8923184 
H     1.4879592    5.9600858    1.4645195 
H     1.9856042    6.0364277    3.1734055 
O     4.8893665    4.5729970    2.7019509 
C     5.0063179    5.0359959    4.0549636 
H     5.8888022    5.6923820    4.0818975 
H     4.1132234    5.6090058    4.3671361 
H     5.1536838    4.1905354    4.7536036 
