112
Energy =
C     0.2209477    2.1762948    2.7713551 
C     0.2488318    3.0515781    1.6508639 
C    -0.8482088    3.1129469    0.7490671 
H     1.1809205    3.5779690    1.4082557 
Pd   -0.0051559    1.0238287    0.8482374 
P    -0.5433571    0.3222316   -1.3041840 
P     0.5524235   -1.0890496    1.6679204 
H    -0.7674028    1.9145059    3.1798893 
H    -1.8281231    2.8027545    1.1437414 
C     3.4648361    1.6319559    5.5482941 
C     2.1336407    1.6022079    5.9890585 
C     1.0858907    1.7771578    5.0757148 
C     1.3495359    1.9986597    3.7056264 
C     2.6966087    2.0387336    3.2789241 
C     3.7417863    1.8524789    4.1883595 
H     4.2843104    1.4853678    6.2594137 
H     1.9088110    1.4386987    7.0483605 
H     0.0479812    1.7437242    5.4231032 
H     2.9233503    2.1888620    2.2182348 
H     4.7780088    1.8683287    3.8350336 
C    -1.1624972    5.7321057   -2.6420852 
C    -2.3085020    5.1719108   -2.0596345 
C    -2.1857371    4.2911466   -0.9783232 
C    -0.9163147    3.9663734   -0.4471516 
C     0.2315101    4.5105690   -1.0686253 
C     0.1071233    5.3863273   -2.1504566 
H    -1.2552846    6.4242855   -3.4850861 
H    -3.3017403    5.4271259   -2.4435812 
H    -3.0836069    3.8616640   -0.5194352 
H     1.2295302    4.2436771   -0.7066588 
H     1.0059999    5.8010498   -2.6175880 
Fe    0.7401290   -4.0863247   -0.2740331 
C    -0.0606879   -2.4420230    0.6122228 
C    -0.1802884   -2.3773864   -0.8391830 
C    -0.9539153   -3.5188080   -1.2539736 
C    -1.2802925   -4.2979461   -0.0966095 
C    -0.7240429   -3.6515698    1.0535745 
C     2.3773979   -4.3540101   -1.4804206 
C     2.7867711   -4.0795223   -0.1353152 
C     2.2174185   -5.0865873    0.7170476 
C     1.4580116   -5.9849740   -0.1063694 
C     1.5534723   -5.5295684   -1.4649795 
C    -0.3254243   -1.3428583    3.2581984 
C    -1.7275948   -1.5273196    3.2172687 
C    -2.4639793   -1.6160463    4.4035183 
C    -1.8148018   -1.5188583    5.6463136 
C    -0.4286102   -1.3223313    5.6922083 
C     0.3165810   -1.2242017    4.5062626 
C     2.3396407   -1.3654957    1.9499968 
C     3.2510746   -0.5725138    1.2263322 
C     4.6306685   -0.7935565    1.3440946 
C     5.1073760   -1.7985936    2.1988081 
C     4.2026108   -2.5918442    2.9237169 
C     2.8231832   -2.3851871    2.7948595 
C     0.3691091   -1.2928288   -1.7285008 
H    -1.2119435   -3.7757341   -2.2817996 
H    -1.8237056   -5.2445153   -0.0969339 
H    -0.7971833   -3.9924722    2.0871568 
H     2.6437112   -3.7667645   -2.3610007 
H     3.4140001   -3.2466451    0.1841746 
H     2.3387101   -5.1575832    1.7986352 
H     0.8873446   -6.8481496    0.2411394 
H     1.0674014   -5.9852824   -2.3296244 
H    -2.2406057   -1.6133805    2.2535245 
H     1.3930919   -1.0431061    4.5619749 
H     2.8692593    0.2193765    0.5700140 
H     2.1228831   -3.0236628    3.3426216 
H     1.4092938   -1.0770161   -1.4203428 
C     0.3455306   -1.6524297   -3.2195510 
H     0.9140434   -2.5846078   -3.3774068 
H    -0.6820957   -1.8233999   -3.5777833 
H     0.7980230   -0.8547173   -3.8291383 
H    -3.5480554   -1.7648520    4.3578834 
H     0.0844379   -1.2338195    6.6554813 
H     5.3334737   -0.1760360    0.7751751 
H     4.5740868   -3.3818908    3.5844694 
H    -2.3910635   -1.5939383    6.5742031 
H     6.1844044   -1.9680351    2.2985273 
C    -4.9794098   -0.9432416   -1.5226234 
C    -4.2637831   -0.8660711   -2.7350711 
C    -2.9234548   -0.4426235   -2.6986860 
C    -2.3163654   -0.0890568   -1.4753046 
C    -3.0640588   -0.1600438   -0.2851708 
C    -4.4005533   -0.5988100   -0.2885938 
H    -6.0233231   -1.2797353   -1.5447577 
H    -2.3595260   -0.3800523   -3.6348746 
H    -2.5857505    0.1274482    0.6603199 
C    -4.9319150   -1.2275256   -4.0434093 
H    -5.3702430   -2.2403525   -3.9984378 
H    -5.7564135   -0.5271536   -4.2700856 
H    -4.2200761   -1.1979471   -4.8844583 
C    -5.1727488   -0.7301935    1.0059771 
H    -6.2423996   -0.5008732    0.8663857 
H    -5.1062360   -1.7656844    1.3911248 
H    -4.7715854   -0.0602848    1.7852283 
C     0.8942243    3.1857042   -4.6285263 
C     1.8291385    2.5633281   -3.7757858 
C     1.3462364    1.7065220   -2.7755845 
C    -0.0395134    1.4705782   -2.6308983 
C    -0.9502558    2.1327368   -3.4691988 
C    -0.4895874    2.9908978   -4.4880699 
H     1.2588116    3.8567008   -5.4157858 
H     2.0589627    1.2180403   -2.0987526 
H    -2.0266320    1.9916732   -3.3339098 
C     3.3080851    2.8432858   -3.9236937 
H     3.9140838    2.1789516   -3.2856572 
H     3.6374921    2.7116050   -4.9692589 
H     3.5380217    3.8874869   -3.6406714 
C    -1.4737754    3.6629452   -5.4180025 
H    -1.0441798    4.5688964   -5.8760928 
H    -1.7631120    2.9792828   -6.2383364 
H    -2.3951242    3.9471126   -4.8824192 
