106
Energy =
C    -2.4579067   -1.5635836   -1.6616313 
C    -1.9324226   -2.3772478   -0.6267354 
C    -1.9300889   -1.9437093    0.7260754 
H    -1.3944187   -3.2958200   -0.8904619 
Pd   -0.7740027   -0.4976096   -0.6016101 
P     0.3596575    0.7522580    1.0314464 
P     0.0538819    0.8633097   -2.2758150 
H    -3.1773927   -0.7853836   -1.3642614 
H    -2.6872252   -1.2011108    1.0167217 
C    -2.7595910   -2.5537161   -5.8360479 
C    -3.3399498   -1.3813160   -5.3282006 
C    -3.2091248   -1.0643959   -3.9725424 
C    -2.5028225   -1.9144856   -3.0893837 
C    -1.9076094   -3.0823515   -3.6201945 
C    -2.0378570   -3.3978055   -4.9776172 
H    -2.8681113   -2.8084185   -6.8951785 
H    -3.9005410   -0.7146692   -5.9912938 
H    -3.6719844   -0.1521082   -3.5789242 
H    -1.3599137   -3.7691149   -2.9665365 
H    -1.5836543   -4.3155382   -5.3656038 
C    -0.4155660   -4.2164080    4.0485520 
C    -0.0321747   -4.5620969    2.7426973 
C    -0.4952159   -3.8197118    1.6520729 
C    -1.3604466   -2.7149414    1.8417483 
C    -1.7213450   -2.3697165    3.1643917 
C    -1.2583194   -3.1143956    4.2539414 
H    -0.0558076   -4.8018337    4.9008184 
H     0.6292459   -5.4181713    2.5735875 
H    -0.1883806   -4.1144802    0.6434802 
H    -2.3818042   -1.5122504    3.3322459 
H    -1.5566168   -2.8334016    5.2689701 
Fe    2.8854400   -0.8104925   -1.7218320 
C     1.8562572    0.9062515   -2.0873553 
C     2.5634944    0.9979626   -0.8152324 
C     3.9611641    0.8094880   -1.1138048 
C     4.1178279    0.6052654   -2.5214746 
C     2.8257927    0.6612225   -3.1296121 
C     4.0373712   -2.4855722   -1.8372839 
C     3.4595780   -2.3633324   -0.5281067 
C     2.0314888   -2.3595663   -0.6758666 
C     1.7285642   -2.4716327   -2.0740725 
C     2.9675802   -2.5495517   -2.7929682 
C     2.0287008    1.5132818    0.5028899 
H     4.7709400    0.8093000   -0.3838104 
H     5.0584441    0.4079180   -3.0387571 
H     2.6023014    0.5319188   -4.1886845 
H     5.1039877   -2.5011421   -2.0684782 
H     4.0132683   -2.2823345    0.4092890 
H     1.2946895   -2.2968763    0.1260074 
H     0.7244482   -2.4913437   -2.5023575 
H     3.0834643   -2.6250037   -3.8759419 
H     1.7176740    2.5545994    0.3016445 
C     3.0897390    1.5334989    1.6156338 
H     3.9017938    2.2261658    1.3355397 
H     2.6655334    1.8724243    2.5739377 
H     3.5249357    0.5353496    1.7831825 
C    -0.5273382    2.5831214   -2.1719893 
C    -1.6701540    3.2426826   -2.5743168 
C    -1.6076391    4.5508704   -1.9934680 
C    -0.4453068    4.5960644   -1.2666439 
H    -2.4459600    2.8418783   -3.2250655 
H    -2.3322281    5.3573491   -2.1066191 
H     0.0339415    5.3551938   -0.6515226 
O     0.2212818    3.4090495   -1.3660991 
C    -0.2033099    0.4666541   -4.0274294 
C     0.2038595   -0.5984530   -4.8073588 
C    -0.2330372   -0.3191583   -6.1394792 
C    -0.8940372    0.8822865   -6.0815431 
H     0.7668524   -1.4652598   -4.4701599 
H    -0.0859369   -0.9393616   -7.0231095 
H    -1.4069781    1.4985540   -6.8183931 
O    -0.8865637    1.3690469   -4.8092112 
C    -2.2610047    4.4686119    1.9310978 
C    -0.9408086    4.4410245    2.4296695 
C    -0.1480813    3.3141389    2.1579718 
C    -0.6640907    2.2321394    1.4121830 
C    -1.9821004    2.2887721    0.9327091 
C    -2.7982864    3.4106341    1.1805927 
H    -2.8854763    5.3476121    2.1326352 
H     0.8755251    3.2798572    2.5466358 
H    -2.3709524    1.4539301    0.3348319 
C     1.3155943   -1.2142122    5.1098201 
C     1.9194138   -1.7083224    3.9382713 
C     1.5883211   -1.1056916    2.7144876 
C     0.6884839   -0.0239574    2.6582173 
C     0.0768999    0.4323723    3.8413040 
C     0.3880902   -0.1574129    5.0807967 
H     1.5632149   -1.6790724    6.0718496 
H     2.0574193   -1.4701483    1.7973396 
H    -0.6435764    1.2555983    3.8057381 
C    -0.4055898    5.5961707    3.2468622 
H    -0.5573875    6.5576499    2.7248884 
H    -0.9325974    5.6683377    4.2159312 
H     0.6709319    5.4827602    3.4547506 
C    -4.1953409    3.4770203    0.6078322 
H    -4.7981814    4.2621022    1.0922628 
H    -4.1523929    3.7022902   -0.4745899 
H    -4.7233712    2.5143301    0.7216869 
C     2.9151286   -2.8446358    3.9912577 
H     2.9679728   -3.3744284    3.0254098 
H     3.9283497   -2.4684416    4.2282470 
H     2.6457126   -3.5773551    4.7702658 
C    -0.2931889    0.3057597    6.3492648 
H     0.4144867    0.3467981    7.1949105 
H    -0.7465921    1.3031098    6.2262353 
H    -1.1009421   -0.3954342    6.6338455 
