104
Energy =
C    -1.2779983    2.4323214    1.5999808 
C    -2.5144611    2.1578733    0.9285523 
C    -3.3553426    1.1030205    1.2936375 
H    -2.8031175    2.7890116    0.0794082 
Pd   -0.9949028    0.5488254    0.4964486 
P    -1.0332026   -1.3194026   -1.0473258 
P     1.3049541    0.4573532    0.8510705 
H    -1.1903286    2.0832792    2.6380891 
H    -3.1180292    0.5687838    2.2254902 
C     1.0600796    5.9550898    0.7475783 
C     0.1755220    5.4532843   -0.2220008 
C    -0.5782953    4.3039792    0.0384108 
C    -0.4805519    3.6360968    1.2838247 
C     0.4059421    4.1603803    2.2533938 
C     1.1723821    5.3014746    1.9848166 
H     1.6541153    6.8511544    0.5408082 
H     0.0820967    5.9540703   -1.1912223 
H    -1.2344220    3.9118442   -0.7456882 
H     0.4945959    3.6634147    3.2247331 
H     1.8562529    5.6845149    2.7492026 
C    -7.2905440    0.2753532   -0.2140470 
C    -6.4683715    1.1898063   -0.8949415 
C    -5.1848472    1.4734000   -0.4209878 
C    -4.6860017    0.8389987    0.7437035 
C    -5.5344480   -0.0681878    1.4246341 
C    -6.8208965   -0.3466369    0.9530741 
H    -8.2960957    0.0572448   -0.5878726 
H    -6.8351809    1.6883084   -1.7980592 
H    -4.5670822    2.1968446   -0.9620061 
H    -5.1719144   -0.5581480    2.3352990 
H    -7.4604252   -1.0491987    1.4970222 
Fe    3.3176611   -2.5486829    0.6689091 
C     1.7414515   -1.2968570    1.0126368 
C     1.3487478   -2.3409462    0.0819623 
C     1.5858986   -3.6019640    0.7378541 
C     2.0779263   -3.3509081    2.0602181 
C     2.1917144   -1.9346540    2.2335180 
C     5.0223789   -1.5348855    0.1283701 
C     5.2368999   -2.2962571    1.3231149 
C     4.9748561   -3.6760472    1.0227955 
C     4.5923892   -3.7669571   -0.3582561 
C     4.6236377   -2.4435015   -0.9124279 
C     1.8797125    1.1730645    2.4390488 
C     1.1074813    0.9138740    3.5917824 
C     1.5044052    1.4171304    4.8364982 
C     2.6717506    2.1926439    4.9394303 
C     3.4474890    2.4436432    3.7985774 
C     3.0598724    1.9315229    2.5508304 
C     2.2978125    1.2492112   -0.4682883 
C     2.2931335    2.6555675   -0.5807047 
C     2.9503439    3.2771911   -1.6499682 
C     3.6132152    2.5089449   -2.6195874 
C     3.6296919    1.1106005   -2.5058077 
C     2.9762079    0.4843893   -1.4357518 
C     0.6950622   -2.1229026   -1.2645518 
H     1.4347485   -4.5905093    0.3032815 
H     2.3655510   -4.1091670    2.7905505 
H     2.5549335   -1.4191298    3.1231013 
H     5.1321004   -0.4537186    0.0315125 
H     5.5308430   -1.8953329    2.2947261 
H     5.0308396   -4.5074827    1.7278392 
H     4.3209326   -4.6811978   -0.8893322 
H     4.4049159   -2.1841752   -1.9502995 
H     0.1952718    0.3108262    3.5086989 
H     3.6737798    2.1296945    1.6671986 
H     1.7926754    3.2669374    0.1717710 
H     3.0097416   -0.6010876   -1.3228458 
H     1.2169392   -1.2896938   -1.7680730 
C     0.8291846   -3.3724515   -2.1540486 
H     1.9026806   -3.6184371   -2.2365565 
H     0.3234875   -4.2478143   -1.7185648 
H     0.4311955   -3.2190159   -3.1652946 
H     0.9005172    1.2105582    5.7260810 
H     4.3617363    3.0410687    3.8765890 
H     2.9404656    4.3697631   -1.7190949 
H     4.1583959    0.5031858   -3.2481439 
C    -1.3602661   -0.4247863   -2.7229907 
C    -2.2894956   -2.7336608   -0.7270518 
C    -1.0368418   -1.2317490   -3.9965083 
H    -1.3413727   -0.6326684   -4.8747661 
H     0.0447910   -1.4199028   -4.0955264 
H    -1.5724259   -2.1913473   -4.0493853 
C    -1.6745630   -3.6486769    0.3565642 
H    -2.4626353   -4.3250715    0.7351433 
H    -0.8607297   -4.2756663   -0.0344905 
H    -1.2839136   -3.0681676    1.2112115 
C    -2.8384524    0.0171345   -2.7379461 
H    -2.9989320    0.7136392   -3.5813886 
H    -3.5320596   -0.8288057   -2.8704302 
H    -3.1084608    0.5427027   -1.8064985 
C    -0.4732755    0.8444600   -2.7195651 
H    -0.6645917    1.4174690   -3.6456477 
H    -0.6969328    1.4992809   -1.8553685 
H     0.6042679    0.6108378   -2.6919189 
C    -3.5632486   -2.1132988   -0.1254079 
H    -4.2934626   -2.9166367    0.0832149 
H    -3.3305173   -1.6109621    0.8259575 
H    -4.0517668   -1.3832069   -0.7868538 
C    -2.6582159   -3.5604491   -1.9763668 
H    -3.3229085   -4.3874773   -1.6647686 
H    -3.2111883   -2.9612595   -2.7180532 
H    -1.7823274   -4.0076680   -2.4698485 
H     2.9764871    2.5970826    5.9101048 
H     4.1228811    2.9986598   -3.4557397 
