124
Energy =
C     1.5826575    2.8177363   -1.3084248 
C     0.5619246    3.4198023   -0.5218227 
C     0.5659019    3.3446351    0.8901876 
H    -0.3089664    3.8513547   -1.0306484 
Pd    0.5098712    1.2515540   -0.1010108 
P    -0.7253781    0.0027919    1.4554156 
P     1.0652099   -0.5666321   -1.4830980 
H     2.5711348    2.6989644   -0.8387878 
H     1.5309049    3.1344043    1.3750642 
C     1.6830759    2.8315762   -5.6202663 
C     0.4516018    2.9287904   -4.9501720 
C     0.4044844    2.9324035   -3.5521122 
C     1.5905559    2.8462617   -2.7859624 
C     2.8230693    2.7721184   -3.4758452 
C     2.8695589    2.7582210   -4.8761321 
H     1.7157806    2.8221256   -6.7143942 
H    -0.4790816    2.9954492   -5.5233428 
H    -0.5677632    2.9776743   -3.0504763 
H     3.7570099    2.7365857   -2.9031647 
H     3.8365304    2.6986107   -5.3863988 
C    -2.2934270    5.2293333    3.5074164 
C    -2.5905245    5.0824007    2.1424121 
C    -1.6803135    4.4603894    1.2815168 
C    -0.4383687    3.9813441    1.7616352 
C    -0.1438255    4.1627965    3.1336514 
C    -1.0619620    4.7701354    3.9982566 
H    -3.0108979    5.7117628    4.1788068 
H    -3.5403353    5.4563784    1.7465742 
H    -1.9436500    4.3448519    0.2254112 
H     0.8253170    3.8323550    3.5212421 
H    -0.8096662    4.8971255    5.0561366 
Fe   -1.4101008   -3.5515609    1.2492038 
C    -1.3155910   -1.5752839    0.7343113 
C    -0.5412617   -2.3988158   -0.1897529 
C    -1.4347485   -3.3664133   -0.7720835 
C    -2.7448567   -3.1624582   -0.2324789 
C    -2.6780030   -2.0770590    0.6979252 
C    -0.8499456   -3.8628256    3.2017089 
C    -2.1897772   -4.3200318    2.9761084 
C    -2.1465728   -5.3164148    1.9430214 
C    -0.7797416   -5.4695079    1.5281704 
C     0.0231856   -4.5692490    2.3059715 
C     0.9063043   -2.2062325   -0.5602467 
H    -1.1563222   -4.1506123   -1.4770814 
H    -3.6319551   -3.7575680   -0.4554462 
H    -3.5195736   -1.7042003    1.2790724 
H    -0.5479328   -3.1157635    3.9357535 
H    -3.0844124   -3.9679386    3.4928611 
H    -3.0045574   -5.8494661    1.5292684 
H    -0.4195342   -6.1457913    0.7505847 
H     1.1070384   -4.4563967    2.2397546 
H     1.4692646   -1.9768075    0.3583787 
C     1.5410294   -3.4552500   -1.1954274 
H     1.3369043   -4.3191885   -0.5386728 
H     1.1365989   -3.6820373   -2.1927455 
H     2.6326560   -3.3472919   -1.2842924 
H    -1.8402017    1.9013017    2.3325652 
C    -4.2747478    1.1253678    3.5297850 
C    -3.0133169    0.3104707    3.1888829 
C    -2.2556862    0.9329359    1.9922095 
C    -3.1547752    1.2388684    0.7683654 
C    -4.4359010    1.9934170    1.1655703 
C    -5.1865823    1.2855618    2.3037194 
H    -3.9711445    2.1274267    3.8912102 
H    -4.8145751    0.6357751    4.3601216 
H    -3.2999065   -0.7341013    2.9727279 
H    -2.3497066    0.2710047    4.0705231 
H    -2.5691440    1.8305936    0.0394820 
H    -3.4308570    0.3029209    0.2511908 
H    -4.1682444    3.0122007    1.4988788 
H    -5.0839256    2.1053741    0.2776088 
H    -5.5285368    0.2870380    1.9639571 
H    -6.0944581    1.8543409    2.5725230 
H    -0.5281035   -0.9902476    3.6378311 
C     1.2888348    0.5759185    5.1183268 
C     0.5459374    0.8954725    3.8084137 
C     0.1849484   -0.3903697    3.0412472 
C     1.4465577   -1.2349561    2.7821667 
C     2.1938835   -1.5526043    4.0893869 
C     2.5453976   -0.2708737    4.8612037 
H     0.6061013    0.0276839    5.7968186 
H     1.5530981    1.5179491    5.6319785 
H     1.1959310    1.5128099    3.1593455 
H    -0.3530804    1.4980581    4.0216292 
H     1.1590810   -2.1666719    2.2677144 
H     2.1173749   -0.6711673    2.1022876 
H     1.5573645   -2.1996845    4.7244536 
H     3.1053001   -2.1348785    3.8632957 
H     3.2702375    0.3229433    4.2692839 
H     3.0443319   -0.5199284    5.8144183 
H     0.4542017    0.2413311   -3.6150090 
C    -2.3075308    0.1495488   -3.8936097 
C    -1.4500513   -0.0561872   -2.6334366 
C    -0.0264567   -0.5468718   -2.9993790 
C    -0.1061577   -1.8442958   -3.8348619 
C    -0.9522513   -1.6162828   -5.1024637 
C    -2.3655796   -1.1249892   -4.7511055 
H    -1.8735833    0.9727758   -4.4936560 
H    -3.3245453    0.4682983   -3.6013504 
H    -1.9331294   -0.7990211   -1.9713450 
H    -1.3807381    0.8826973   -2.0518043 
H     0.8978117   -2.2062020   -4.1094266 
H    -0.5835243   -2.6318282   -3.2248889 
H    -0.4479536   -0.8670239   -5.7442217 
H    -1.0011729   -2.5529415   -5.6864240 
H    -2.8968277   -1.9185128   -4.1890676 
H    -2.9493886   -0.9427660   -5.6709172 
H     2.8691286    0.6510783   -2.3434621 
C     4.7830417   -0.8312931   -3.5936027 
C     3.3316744   -1.2202314   -3.2467393 
C     2.8436829   -0.4068911   -2.0281682 
C     3.7855226   -0.5443943   -0.8098069 
C     5.2291169   -0.1666108   -1.1871171 
C     5.7234118   -0.9894652   -2.3881097 
H     4.7985486    0.2224171   -3.9351252 
H     5.1348072   -1.4433287   -4.4432767 
H     3.2797928   -2.3044472   -3.0439939 
H     2.6824791   -1.0183992   -4.1158789 
H     3.4204471    0.0956027    0.0174747 
H     3.7716263   -1.5862864   -0.4356331 
H     5.2657096    0.9116877   -1.4402770 
H     5.8931977   -0.3099034   -0.3159120 
H     5.7745410   -2.0585156   -2.1006913 
H     6.7501386   -0.6878344   -2.6613696 
