142
Energy =
C     2.9210575    1.8188426   -1.4284106 
C     3.3964061    0.5149626   -1.0978333 
C     2.9669203   -0.6452478   -1.7781048 
H     4.0146787    0.3986978   -0.1991398 
Pd    1.2141621    0.5156636   -0.7823635 
P     0.0687350   -1.3456142    0.1027774 
P    -0.3869366    2.1249098   -0.2691301 
H     2.6393390    2.0130602   -2.4739407 
H     2.5007694   -0.5072746   -2.7659929 
C     4.0694066    5.2861981    0.8597575 
C     3.9065049    4.0470223    1.5007458 
C     3.5407965    2.9191710    0.7599020 
C     3.3119735    3.0026302   -0.6342678 
C     3.4767881    4.2550097   -1.2632698 
C     3.8588597    5.3822988   -0.5232819 
H     4.3426257    6.1741446    1.4373260 
H     4.0541061    3.9594931    2.5816026 
H     3.4244867    1.9578251    1.2728905 
H     3.3071835    4.3462384   -2.3405296 
H     3.9794191    6.3451117   -1.0300041 
C     4.2889510   -4.6626363   -1.0112475 
C     3.4180439   -4.3874402   -2.0760637 
C     2.9964498   -3.0752194   -2.3128752 
C     3.4225837   -2.0111587   -1.4837128 
C     4.3064379   -2.3064479   -0.4187166 
C     4.7348476   -3.6158268   -0.1873794 
H     4.6236640   -5.6880334   -0.8240040 
H     3.0721819   -5.1948436   -2.7295091 
H     2.3324633   -2.8670783   -3.1565420 
H     4.6680194   -1.5099019    0.2367536 
H     5.4114775   -3.8229723    0.6476831 
Fe   -4.4449051    0.0917818   -1.9782355 
C    -2.4894038    0.6816300   -1.6555620 
C    -2.8388044   -0.4449663   -0.8082147 
C    -3.2786005   -1.5151686   -1.6722283 
H    -3.6103539   -2.4946102   -1.3282506 
C    -3.1763860   -1.0803183   -3.0314597 
H    -3.4492515   -1.6618149   -3.9136973 
C    -2.7013140    0.2706639   -3.0231917 
H    -2.5451767    0.9035084   -3.9001443 
C    -5.7637919    1.6311412   -2.3376130 
H    -5.5290584    2.6593576   -2.6156641 
C    -5.9368951    1.1279573   -1.0047228 
H    -5.8644168    1.7090346   -0.0835059 
C    -6.2590542   -0.2684797   -1.0970380 
H    -6.4467028   -0.9467741   -0.2626383 
C    -6.2838047   -0.6254415   -2.4855785 
H    -6.4745267   -1.6225417   -2.8871295 
C    -5.9755313    0.5481331   -3.2520626 
H    -5.8960660    0.6019931   -4.3394447 
C    -2.6402909   -0.5991504    0.6600221 
C    -1.3894270   -1.0224292    1.2013497 
C    -1.2543460   -1.1725163    2.5969089 
H    -0.2910248   -1.4724959    3.0198596 
C    -2.3401857   -0.9471728    3.4542597 
H    -2.2126583   -1.0652904    4.5349939 
C    -3.5802119   -0.5708470    2.9247374 
H    -4.4330278   -0.3935666    3.5860367 
C    -3.7165619   -0.3923850    1.5425414 
H    -4.6715411   -0.0784305    1.1159865 
C     1.3019603   -2.1809913    1.1879406 
C     2.1665577   -1.3745283    1.9586207 
H     2.0758879   -0.2838644    1.9104258 
C     3.1678543   -1.9343914    2.7663793 
C     3.2836677   -3.3435202    2.7961810 
C     2.4478201   -4.1779349    2.0219805 
C     1.4652385   -3.5765080    1.2176026 
H     0.8534638   -4.2181012    0.5781362 
C    -0.5113329   -2.6091139   -1.0782286 
C    -1.2249582   -3.7437935   -0.6403316 
H    -1.4557247   -3.8700401    0.4237506 
C    -1.6760114   -4.7057130   -1.5553846 
C    -1.4127967   -4.4960910   -2.9320739 
C    -0.6957300   -3.3711384   -3.3963893 
C    -0.2590067   -2.4332918   -2.4461762 
H     0.2671623   -1.5329650   -2.7827146 
C    -0.7073509    2.1536182    1.5482957 
C     0.4217975    1.9558510    2.3636751 
H     1.3988391    1.7952431    1.9014822 
C     0.3090937    1.9757097    3.7593776 
C    -0.9322249    2.1984762    4.3676802 
H    -1.0229719    2.2039369    5.4573775 
C    -2.0576027    2.3963027    3.5568419 
C    -1.9524857    2.3786819    2.1597471 
H    -2.8540185    2.5235931    1.5700839 
C     0.0974512    3.8809765   -0.6004642 
C     0.2348001    4.2997262   -1.9374100 
H     0.0876055    3.5987360   -2.7659275 
C     0.5662557    5.6276903   -2.2362930 
C     0.8013966    6.5509593   -1.2099996 
H     1.0761034    7.5823356   -1.4454858 
C     0.7173390    6.1211602    0.1207320 
C     0.3597328    4.8016489    0.4294530 
H     0.2993822    4.5031805    1.4782129 
C    -1.9774020    2.0629136   -1.2925194 
H    -1.5556010    2.4569068   -2.2345535 
C    -3.0517982    3.0715978   -0.8332549 
H    -3.6593745    3.3589642   -1.7037215 
H    -3.7306358    2.6126144   -0.1009763 
H    -2.6087136    3.9885282   -0.4080205 
C     0.7788586    6.0269498   -3.6798601 
F     0.5818781    7.3447391   -3.8763383 
F     2.0527001    5.7449605   -4.0733772 
F    -0.0468936    5.3471890   -4.5109969 
C     1.0055517    7.1034795    1.2372704 
F     1.3320244    6.4676121    2.3877682 
F     2.0362641    7.9213622    0.9130864 
F    -0.0645667    7.8882118    1.4960123 
C     1.5129387    1.6484169    4.6106867 
F     1.4851715    2.2756634    5.8006582 
F     1.5713006    0.3101549    4.8597029 
F     2.6760932    1.9805961    3.9885018 
C    -3.4019082    2.6341868    4.2126964 
F    -4.4221867    2.5221133    3.3263985 
F    -3.6234935    1.7362928    5.2050632 
F    -3.4728117    3.8648497    4.7632592 
C     4.1442780   -1.0810100    3.5394827 
H     5.1629927   -1.4950058    3.4572884 
H     4.1403354   -0.0410737    3.1774376 
H     3.8876556   -1.0511694    4.6133921 
C     2.6495738   -5.6740413    2.0212751 
H     3.7208555   -5.9193624    2.1068223 
H     2.1350120   -6.1481630    2.8781351 
H     2.2485328   -6.1245824    1.0991086 
C    -2.4280030   -5.9384146   -1.1128528 
H    -3.4894204   -5.8927198   -1.4194802 
H    -2.0022099   -6.8421164   -1.5805399 
H    -2.3978938   -6.0503138   -0.0171974 
C    -0.4156672   -3.1840215   -4.8686192 
H    -0.3417786   -4.1581181   -5.3784466 
H    -1.2227539   -2.6077749   -5.3596315 
H     0.5223191   -2.6254095   -5.0264815 
O     4.3300216   -3.9045392    3.4956107 
O    -1.8310772   -5.4588186   -3.8246964 
C     4.0499799   -4.2948342    4.8481755 
H     4.9859408   -4.7095133    5.2508187 
H     3.7385324   -3.4262739    5.4586324 
H     3.2580656   -5.0663302    4.8874793 
C    -3.0794717   -5.1995412   -4.4800704 
H    -3.2871620   -6.0756765   -5.1120173 
H    -3.8979372   -5.0724309   -3.7455391 
H    -3.0243924   -4.2952741   -5.1161031 
