134
Energy =
C     2.8032571    1.5556925   -0.8717974 
C     1.7567027    2.1680028   -1.6306197 
C     0.8184179    3.0355898   -1.0395726 
H     1.6380554    1.8903558   -2.6853261 
Pd    0.7967863    0.8446247   -0.1355774 
P    -1.5244143    0.5999064   -0.2201069 
P     1.5454977   -0.6918132    1.5171524 
H     3.1633675    2.1067707    0.0067011 
H     1.0418464    3.4110291   -0.0291976 
C     5.8407396   -0.7090833   -2.9124265 
C     6.1726824    0.1128738   -1.8246370 
C     5.1688782    0.8073722   -1.1376166 
C     3.8152470    0.7059798   -1.5342047 
C     3.4932983   -0.1481537   -2.6151327 
C     4.4960512   -0.8442962   -3.2975127 
H     6.6240060   -1.2509329   -3.4519119 
H     7.2170026    0.2176128   -1.5132602 
H     5.4358855    1.4636099   -0.3011810 
H     2.4502731   -0.2717079   -2.9253813 
H     4.2275704   -1.4963841   -4.1349058 
C    -2.3118952    5.1906729   -3.0449381 
C    -2.1577765    5.2822269   -1.6533401 
C    -1.1238998    4.5878401   -1.0168377 
C    -0.2394874    3.7616949   -1.7516725 
C    -0.3890801    3.7043258   -3.1587209 
C    -1.4109712    4.4151845   -3.7939625 
H    -3.1234278    5.7248544   -3.5483051 
H    -2.8375254    5.9055856   -1.0635264 
H    -0.9894327    4.6952116    0.0627820 
H     0.2995552    3.1096975   -3.7645768 
H    -1.5151680    4.3596535   -4.8816815 
Fe   -1.7863771   -4.0454628   -1.0905925 
C    -1.3403686   -2.1236248   -0.6418140 
C    -0.3414790   -2.9979328   -0.0440486 
C     0.2341397   -3.7825373   -1.1128288 
H     0.9997521   -4.5482754   -0.9780364 
C    -0.3473998   -3.3739513   -2.3561470 
H    -0.1183149   -3.7818369   -3.3418909 
C    -1.3241353   -2.3656694   -2.0709949 
H    -1.9875220   -1.9012444   -2.8007607 
C    -3.7940742   -4.2712494   -0.7858454 
H    -4.5026437   -3.4776462   -0.5394350 
C    -3.0593073   -5.0670903    0.1552330 
H    -3.1214751   -4.9910232    1.2425697 
C    -2.2372770   -5.9838173   -0.5858196 
H    -1.5606705   -6.7319971   -0.1680438 
C    -2.4662051   -5.7536223   -1.9831654 
H    -1.9789199   -6.2764081   -2.8080030 
C    -3.4300000   -4.6972008   -2.1071064 
H    -3.8001435   -4.2745846   -3.0430542 
C     0.0364363   -3.1774264    1.3895407 
C     0.7067542   -2.2082712    2.1900413 
C     0.9443856   -2.5102018    3.5533799 
H     1.4428337   -1.7816609    4.1958796 
C     0.5849239   -3.7361930    4.1217113 
H     0.7829001   -3.9229737    5.1818959 
C     0.0022607   -4.7183075    3.3136948 
H    -0.2578383   -5.6994974    3.7236666 
C    -0.2639919   -4.4279710    1.9738691 
H    -0.7343342   -5.1754758    1.3339584 
C    -2.6341509    1.7074800    0.7348738 
C    -4.0349018    1.5786237    0.7014279 
H    -4.5137581    0.7856513    0.1179410 
C    -4.8430662    2.4746344    1.4160832 
C    -4.2698152    3.4872800    2.1968180 
H    -4.9056291    4.1821348    2.7509911 
C    -2.8729417    3.5958525    2.2556048 
C    -2.0618539    2.7177001    1.5246420 
H    -0.9740930    2.8233396    1.5600758 
C    -1.9376165    0.9408639   -1.9896523 
C    -1.0011765    0.4736706   -2.9281347 
H    -0.0912099   -0.0275834   -2.5804963 
C    -1.2202590    0.6358950   -4.3020761 
C    -2.3695901    1.2862480   -4.7635311 
H    -2.5320905    1.4316919   -5.8347303 
C    -3.2857387    1.7898043   -3.8260519 
C    -3.0802043    1.6194888   -2.4495089 
H    -3.8033666    2.0540384   -1.7555242 
C    -2.2568260   -1.1334728    0.0318519 
H    -3.2029836   -1.1224385   -0.5391598 
C    -2.5579194   -1.4044428    1.5151255 
H    -2.7738669   -2.4780569    1.6425400 
H    -1.7035831   -1.1566357    2.1640824 
H    -3.4303052   -0.8253220    1.8565310 
C    -0.1385590    0.1668669   -5.2452202 
F     0.9602826    0.9777594   -5.1505965 
F     0.2876210   -1.0829649   -4.9275421 
F    -0.5297443    0.1643062   -6.5301812 
C    -4.5049343    2.5398511   -4.3226766 
F    -5.0856832    3.2613933   -3.3362916 
F    -4.1730985    3.3998854   -5.3184615 
F    -5.4368218    1.6955987   -4.8175731 
C    -6.3465992    2.3365499    1.2877371 
F    -7.0085591    3.1675404    2.1149409 
F    -6.7384356    2.6080035    0.0183176 
F    -6.7372411    1.0680865    1.5605881 
C    -2.2209890    4.6406791    3.1345355 
F    -1.0677353    5.1015196    2.5686941 
F    -3.0245247    5.6973943    3.3513506 
F    -1.8812023    4.1269762    4.3426764 
H     2.2752512   -0.1583938    3.7839244 
C     0.4927445    1.6983876    4.8574365 
C     0.3420665    0.8058703    3.6123588 
C     1.7169812    0.4214394    3.0259692 
C     2.5524144    1.6830520    2.7227540 
C     2.7206672    2.5458644    3.9861177 
C     1.3548303    2.9387875    4.5708758 
H     0.9591309    1.1060955    5.6690699 
H    -0.5062651    2.0001657    5.2166852 
H    -0.2323272    1.3441201    2.8367316 
H    -0.2426722   -0.0972109    3.8605386 
H     3.5391445    1.4079558    2.3070534 
H     2.0277140    2.2776223    1.9474951 
H     3.3006329    1.9776315    4.7395031 
H     3.3137103    3.4459161    3.7438524 
H     0.8266768    3.5943944    3.8521801 
H     1.4867873    3.5319032    5.4928564 
H     3.7932221   -0.5101908    0.7195837 
C     4.5807682   -3.0051042   -0.2531759 
C     3.1834134   -2.4969680    0.1379637 
C     3.2680252   -1.3644782    1.1834195 
C     4.0647381   -1.8137953    2.4238976 
C     5.4665120   -2.3072947    2.0113793 
C     5.3824901   -3.4447031    0.9813328 
H     5.1235257   -2.1995791   -0.7778169 
H     4.4800611   -3.8391527   -0.9712265 
H     2.6044868   -3.3335499    0.5724250 
H     2.6317395   -2.1489906   -0.7537922 
H     4.1634319   -0.9861993    3.1493907 
H     3.5257675   -2.6345645    2.9336508 
H     6.0347705   -1.4610303    1.5773150 
H     6.0194987   -2.6343334    2.9102284 
H     4.8926483   -4.3224515    1.4477483 
H     6.3966319   -3.7679496    0.6856948 
