124
Energy =
C     2.4976556    1.1221913    1.2778636 
C     3.0668106    0.5480216    0.1184411 
C     2.6506058    0.9314653   -1.1899671 
H     3.7611565   -0.2967557    0.2141207 
Pd    0.9413225    0.0229426   -0.0221258 
P    -0.6126697   -0.4707676   -1.6967575 
P    -0.3015888   -0.7929380    1.7741736 
H     1.9886105    2.0882918    1.1452016 
H     2.2688183    1.9553590   -1.3175021 
C     3.6482753    0.3930025    5.3540065 
C     2.7597625    1.4297329    5.0342723 
C     2.3807825    1.6408730    3.7039550 
C     2.8776980    0.8195395    2.6651805 
C     3.7591198   -0.2327370    3.0071660 
C     4.1432802   -0.4372531    4.3346482 
H     3.9536833    0.2293015    6.3926086 
H     2.3671831    2.0819905    5.8211364 
H     1.6958964    2.4593182    3.4598559 
H     4.1550381   -0.8937297    2.2308929 
H     4.8316613   -1.2526636    4.5778668 
C     4.7324773   -0.7330764   -4.5656940 
C     4.1877666   -1.5874937   -3.5944633 
C     3.4816461   -1.0568561   -2.5098232 
C     3.3027739    0.3383589   -2.3794452 
C     3.8349718    1.1857897   -3.3751065 
C     4.5539743    0.6540967   -4.4524692 
H     5.2811525   -1.1491521   -5.4165600 
H     4.2983655   -2.6721036   -3.6931653 
H     3.0296479   -1.7274781   -1.7701754 
H     3.6996437    2.2699067   -3.2895977 
H     4.9725531    1.3247250   -5.2102858 
Fe   -3.7838336    0.0151925   -0.3313868 
C    -2.2321488   -1.0554590   -1.0831208 
C    -2.6063189   -1.5461098    0.2395999 
C    -3.9923634   -1.9410023    0.1648058 
C    -4.4742257   -1.7130747   -1.1621376 
C    -3.4034592   -1.1612419   -1.9308250 
C    -4.0579067    1.8990091   -1.0715445 
C    -5.3153735    1.2990299   -0.7291838 
C    -5.2871922    0.9692269    0.6687871 
C    -4.0142621    1.3675380    1.1932593 
C    -3.2561012    1.9398721    0.1181171 
C    -1.7625110   -1.9384524    1.4324187 
H    -4.5728069   -2.3396726    0.9999191 
H    -5.4928079   -1.8832970   -1.5152917 
H    -3.4647625   -0.8573056   -2.9753185 
H    -3.7570436    2.2426340   -2.0622770 
H    -6.1384580    1.0983521   -1.4176589 
H    -6.0859044    0.4763796    1.2263408 
H    -3.6769681    1.2452032    2.2218729 
H    -2.2430519    2.3303219    0.1897457 
H    -2.3952879   -1.8156459    2.3294927 
C    -1.3858813   -3.4331648    1.3313288 
H    -0.7575698   -3.6322894    0.4498311 
H    -0.8546341   -3.7827815    2.2309481 
H    -2.3115482   -4.0225156    1.2196282 
C     2.3916696   -3.3333572    4.6749363 
C     1.5382384   -2.3255508    5.1627490 
C     0.7582588   -1.5665365    4.2902203 
C     0.7895736   -1.7822017    2.8947210 
C     1.6840168   -2.7593034    2.3754965 
C     2.4487589   -3.5167527    3.2852626 
H     1.4931340   -2.1188078    6.2376673 
H     0.1322267   -0.7738602    4.7053349 
H     3.1306212   -4.2748597    2.8802560 
C    -2.1938051    2.6402269    4.2531020 
C    -2.4602149    1.3111517    4.6483486 
C    -1.8945218    0.2643140    3.9009878 
C    -1.0597728    0.5337859    2.7935997 
C    -0.8230102    1.8663825    2.4255604 
C    -1.3915806    2.9387188    3.1401995 
H    -2.6406426    3.4631066    4.8239031 
H    -2.1120299   -0.7688347    4.1948244 
H    -0.1995648    2.0685620    1.5473656 
C     3.2369248   -4.1565148    5.6178706 
H     3.8728208   -3.5048298    6.2445120 
H     2.6016993   -4.7440010    6.3053863 
H     3.8914288   -4.8571052    5.0745348 
C     1.8925063   -3.0427698    0.9008471 
H     2.9641503   -2.9624934    0.6459633 
H     1.5736941   -4.0671433    0.6405249 
H     1.3442458   -2.3391529    0.2451971 
C    -3.3459781    1.0312123    5.8418536 
H    -2.9328774    1.4935309    6.7562492 
H    -4.3550388    1.4555340    5.6916986 
H    -3.4530136   -0.0505369    6.0234999 
C    -1.1649631    4.3610606    2.6791924 
H    -0.0998692    4.5435451    2.4493816 
H    -1.7399300    4.5623603    1.7554267 
H    -1.4837047    5.0924508    3.4389990 
C     0.4438306   -4.0674556   -4.4961415 
C    -0.2397762   -4.2262048   -3.3036374 
C    -0.5554307   -3.0928386   -2.5184520 
C    -0.1647434   -1.8049437   -2.8941100 
H     0.6729897   -4.9341025   -5.1258732 
H    -0.5613233   -5.2185830   -2.9718300 
H    -1.1438074   -3.2338184   -1.6071720 
C     0.5762794   -1.6133765   -4.1166209 
C     0.8492229   -2.7755583   -4.9365969 
C     1.5207033   -2.6113213   -6.1849623 
C     1.9131790   -1.3605318   -6.6246432 
C     1.6755935   -0.2237000   -5.8105989 
C     1.0389694   -0.3488560   -4.5873173 
H     1.7131412   -3.5011731   -6.7943537 
H     2.4182639   -1.2461335   -7.5891593 
H     2.0121502    0.7628824   -6.1426291 
H     0.9018410    0.5399764   -3.9705173 
C    -0.7420461    2.2730455   -2.0744067 
C    -1.0584559    1.0436602   -2.6391783 
C    -1.7584557    0.9993464   -3.8844613 
C    -2.1455326    2.1725207   -4.5064975 
H    -0.1877032    2.3041847   -1.1274674 
H    -1.9588949    0.0356820   -4.3627519 
H    -2.6749762    2.1329002   -5.4647015 
C    -1.8635967    3.4476346   -3.9281494 
C    -1.1390625    3.4972084   -2.6822646 
C    -0.8532791    4.7637855   -2.0934281 
C    -1.2651290    5.9350149   -2.7081397 
C    -1.9755628    5.8874787   -3.9384636 
C    -2.2675614    4.6713264   -4.5361883 
H    -0.3064582    4.7960454   -1.1437250 
H    -1.0447086    6.9039776   -2.2485278 
H    -2.2934217    6.8209338   -4.4141209 
H    -2.8153427    4.6370142   -5.4841870 
