142
Energy =
C     2.9348951    1.8410207   -1.2442238 
C     3.4087744    0.5253121   -0.9617870 
C     2.9880640   -0.5957379   -1.7124584 
H     4.0017440    0.3650568   -0.0524415 
Pd    1.2231902    0.4885827   -0.7037865 
P     0.1318773   -1.4311797    0.1100741 
P    -0.4242628    2.0771178   -0.2589711 
H     2.6921006    2.0840870   -2.2894235 
H     2.5412519   -0.3979982   -2.6996252 
C     3.9195911    5.2038495    1.2633313 
C     3.6764330    3.9468863    1.8415961 
C     3.3685337    2.8515364    1.0290834 
C     3.2774105    2.9881357   -0.3763964 
C     3.5255816    4.2563356   -0.9429024 
C     3.8513581    5.3503019   -0.1295719 
H     4.1451399    6.0676193    1.8958496 
H     3.7143050    3.8206135    2.9280032 
H     3.1812169    1.8761339    1.4918558 
H     3.4612041    4.3854365   -2.0278155 
H     4.0357124    6.3282183   -0.5853292 
C     4.2530306   -4.6693073   -1.1907512 
C     3.3656573   -4.3213408   -2.2197625 
C     2.9678062   -2.9900491   -2.3766127 
C     3.4263389   -1.9816570   -1.4970300 
C     4.3189206   -2.3496944   -0.4630340 
C     4.7316565   -3.6765487   -0.3200934 
H     4.5795129   -5.7078176   -1.0732035 
H     2.9922261   -5.0849459   -2.9095239 
H     2.2943541   -2.7227167   -3.1958074 
H     4.7016853   -1.5967324    0.2311224 
H     5.4327527   -3.9397189    0.4767075 
Fe   -4.5268920    0.0099629   -1.6784058 
C    -2.5361635    0.5774191   -1.5872483 
C    -2.8185542   -0.4973177   -0.6515928 
C    -3.3539576   -1.6022645   -1.4122169 
H    -3.6669291   -2.5545241   -0.9842623 
C    -3.3879888   -1.2366069   -2.7946526 
H    -3.7562575   -1.8555767   -3.6144120 
C    -2.8976640    0.1043821   -2.9024339 
H    -2.8174010    0.6881197   -3.8226598 
C    -5.8706672    1.5413081   -1.9895526 
H    -5.6645125    2.5468045   -2.3573143 
C    -5.8960988    1.1281338   -0.6153644 
H    -5.7184779    1.7669493    0.2527122 
C    -6.2333728   -0.2674224   -0.5790158 
H    -6.3284475   -0.8880472    0.3138391 
C    -6.4151158   -0.7132686   -1.9296370 
H    -6.6548192   -1.7319369   -2.2406114 
C    -6.1889054    0.4042461   -2.8013264 
H    -6.2318220    0.3868394   -3.8919888 
C    -2.5153432   -0.5948377    0.8041845 
C    -1.2698911   -1.1062502    1.2754782 
C    -1.0659154   -1.2577491    2.6615910 
H    -0.1150802   -1.6467661    3.0336360 
C    -2.0607963   -0.9033803    3.5829142 
H    -1.8682091   -1.0210663    4.6540840 
C    -3.2810909   -0.3949286    3.1264704 
H    -4.0626277   -0.0991466    3.8329143 
C    -3.4985907   -0.2536527    1.7496614 
H    -4.4452835    0.1421966    1.3794312 
C     1.3865509   -2.2847442    1.1508391 
C     2.1885269   -1.4818932    1.9912537 
H     2.0786085   -0.3916374    1.9652848 
C     3.1110589   -2.0454881    2.8829019 
C     3.2327408   -3.4555534    2.9101503 
C     2.4661096   -4.2854877    2.0618809 
C     1.5505693   -3.6785408    1.1825127 
H     0.9659247   -4.3183598    0.5158186 
C    -0.4804365   -2.6355339   -1.1116112 
C    -1.1539818   -3.8091994   -0.7159451 
H    -1.3319228   -4.0086790    0.3469888 
C    -1.6350918   -4.7164011   -1.6707310 
C    -1.4431867   -4.4122585   -3.0414425 
C    -0.7698088   -3.2446194   -3.4643310 
C    -0.3012566   -2.3636949   -2.4760397 
H     0.1955017   -1.4337159   -2.7764309 
C    -0.8559535    2.2131238    1.5269658 
C    -2.0730426    2.7056633    2.0257422 
H    -2.8874837    2.9737259    1.3537606 
C    -2.2637930    2.8472871    3.4079092 
C    -1.2465814    2.5205527    4.3130697 
H    -1.4046234    2.6299833    5.3885346 
C    -0.0320857    2.0293009    3.8157857 
C     0.1579381    1.8706444    2.4377506 
H     1.1065104    1.4819592    2.0595212 
C     0.0892347    3.8136360   -0.6429276 
C     0.3253766    4.1657398   -1.9843118 
H     0.2261966    3.4267652   -2.7866247 
C     0.6946905    5.4750413   -2.3204443 
C     0.8585208    6.4466976   -1.3256422 
H     1.1597564    7.4634947   -1.5899843 
C     0.6682135    6.0836967    0.0144581 
C     0.2820839    4.7813993    0.3589634 
H     0.1460930    4.5321745    1.4134299 
C    -1.9435802    1.9617923   -1.3750891 
H    -1.4273971    2.1894249   -2.3269615 
C    -2.9832857    3.0816111   -1.1591441 
H    -3.5422285    3.2245166   -2.0963402 
H    -3.7109102    2.7920232   -0.3884653 
H    -2.5141805    4.0435332   -0.8908271 
C     1.0177089    5.7927769   -3.7636791 
F     0.1784822    5.1523127   -4.6123061 
F     0.9530140    7.1122126   -4.0232316 
F     2.2788555    5.3776937   -4.0734888 
C     0.8695453    7.1218580    1.0991141 
F     1.0754986    6.5473658    2.3080894 
F     1.9397008    7.9089105    0.8303882 
F    -0.2065368    7.9324770    1.2119271 
C    -3.6125202    3.3392368    3.8877228 
F    -3.8144035    4.6338968    3.5565524 
F    -4.6148780    2.6232335    3.3017561 
F    -3.7533193    3.2210765    5.2225677 
C     1.0586121    1.5655617    4.7521363 
F     2.2919980    1.9034206    4.2795793 
F     0.9334883    2.0801049    5.9876895 
F     1.0523193    0.2088244    4.8691381 
C     3.9388286   -1.1996195    3.8199846 
H     5.0192802   -1.3703308    3.6678415 
H     3.7309674   -0.1280139    3.6812450 
H     3.7209732   -1.4622045    4.8697121 
C     2.6119989   -5.7873369    2.1121925 
H     2.8703904   -6.1190373    3.1311014 
H     1.6807715   -6.2860020    1.7977315 
H     3.4137169   -6.1308998    1.4316604 
C    -2.3477495   -5.9880658   -1.2760791 
H    -2.2625373   -6.1720517   -0.1931181 
H    -3.4234436   -5.9391481   -1.5275962 
H    -1.9338307   -6.8517014   -1.8233617 
C    -0.5697150   -2.9519728   -4.9322821 
H     0.3541190   -2.3726551   -5.0987223 
H    -0.5147058   -3.8866761   -5.5132278 
H    -1.4071313   -2.3519487   -5.3365730 
O     4.0713149   -4.0067922    3.8534084 
O    -1.8889490   -5.3237776   -3.9736367 
C     5.3676619   -4.4237078    3.4096945 
H     5.8967262   -4.7892700    4.3021008 
H     5.3037347   -5.2395109    2.6654830 
H     5.9315022   -3.5774269    2.9717430 
C    -3.1689338   -5.0458601   -4.5563134 
H    -3.3986709   -5.8918768   -5.2208238 
H    -3.9528536   -4.9644016   -3.7788752 
H    -3.1515928   -4.1110728   -5.1487666 
