112
Energy =
C     2.6813300    1.8686523   -1.2170879 
C     1.8606411    1.6193147   -2.3337383 
C     0.5668602    2.2338433   -2.4263731 
H     2.1649625    0.8799414   -3.0860106 
Pd    0.6358839    0.8837700   -0.6670641 
P    -1.6220850    0.7060355   -0.0748248 
P     1.3305672   -0.8222540    0.7869747 
H     2.4115610    2.7379652   -0.5970308 
H     0.4685433    3.2361544   -1.9849391 
C     6.6636335    0.4671235   -0.4354859 
C     6.1625183    1.6090966    0.2078873 
C     4.8581644    2.0438907   -0.0536563 
C     4.0369982    1.3605934   -0.9824909 
C     4.5678154    0.2291761   -1.6454507 
C     5.8608435   -0.2195479   -1.3635746 
H     7.6786773    0.1164157   -0.2225398 
H     6.7859508    2.1569723    0.9219500 
H     4.4613037    2.9212466    0.4685411 
H     3.9611134   -0.3152726   -2.3728920 
H     6.2464240   -1.1087406   -1.8723305 
C    -2.1043045    1.3977700   -5.7067567 
C    -1.3741931    0.3546703   -5.1118422 
C    -0.5039430    0.6228012   -4.0503163 
C    -0.3465400    1.9377905   -3.5521249 
C    -1.0818142    2.9754143   -4.1641721 
C    -1.9487514    2.7085522   -5.2328929 
H    -2.7860639    1.1888791   -6.5374041 
H    -1.4889521   -0.6719680   -5.4754771 
H     0.0429650   -0.1992814   -3.5750240 
H    -0.9662159    4.0028324   -3.8016606 
H    -2.5048315    3.5294366   -5.6975809 
Fe   -0.6304922   -3.7880230    1.0838571 
C    -0.0077703   -1.8702382    1.4458504 
C    -1.4087877   -1.8876896    1.0424098 
C    -2.1058263   -2.7206367    1.9872446 
C    -1.1747542   -3.2133901    2.9577758 
C     0.1221207   -2.7107293    2.6197222 
C    -0.2239529   -4.5855467   -0.7644259 
C     0.7786864   -4.9804369    0.1831603 
C     0.1281937   -5.6795468    1.2506692 
C    -1.2783396   -5.7178533    0.9651083 
C    -1.4957833   -5.0435169   -0.2827294 
C     2.2373835   -0.2421452    2.2750706 
C     3.6152688    0.0525750    2.1950446 
C     4.2843729    0.6085191    3.2939062 
C     3.5906388    0.8861785    4.4806118 
C     2.2196273    0.5992252    4.5662708 
C     1.5461163    0.0397226    3.4727740 
C     2.4713059   -1.9809425   -0.0784194 
C     2.2746099   -2.1889117   -1.4580760 
C     3.0721740   -3.1006812   -2.1627907 
C     4.0914183   -3.7990828   -1.4970196 
C     4.2932317   -3.5971455   -0.1223700 
C     3.4810532   -2.7021561    0.5890541 
C    -2.1061875   -1.1117256   -0.0572570 
H    -3.1738018   -2.9469633    1.9510327 
H    -1.4042553   -3.8922728    3.7810205 
H     1.0513157   -2.9038568    3.1585784 
H    -0.0413867   -4.0406250   -1.6903482 
H     1.8458183   -4.7734198    0.1085453 
H     0.6119383   -6.0848854    2.1413538 
H    -2.0506273   -6.1574862    1.5992092 
H    -2.4640230   -4.9031087   -0.7667224 
H     4.1728865   -0.1596808    1.2797279 
H     0.4797042   -0.1867827    3.5559066 
H     1.4957617   -1.6210685   -1.9811454 
H     3.6358001   -2.5698949    1.6642739 
H     5.3548206    0.8243907    3.2146417 
H     1.6699665    0.8069349    5.4903106 
H     2.9064831   -3.2573865   -3.2338045 
H     5.0816214   -4.1461139    0.4028548 
H     4.1162700    1.3198929    5.3374796 
H     4.7237482   -4.5035532   -2.0469952 
H    -3.1858199   -1.1461820    0.1687234 
C    -1.8794956   -1.6693701   -1.4759647 
H    -0.8016822   -1.6973899   -1.7053248 
H    -2.2714708   -2.6958272   -1.5354436 
H    -2.3800333   -1.0581241   -2.2461174 
H    -2.5750267    1.2212420   -2.2340786 
H    -2.9462833    2.0613466    1.3923001 
C    -3.8038927    3.7427742   -2.0578626 
C    -2.7917260    3.0572529   -1.1217351 
C    -2.8843078    1.5151975   -1.2131546 
C    -4.3314109    1.0293876   -0.9685993 
C    -5.3283112    1.7391718   -1.9053424 
C    -5.2366173    3.2665041   -1.7783148 
H    -3.5433420    3.5102667   -3.1061936 
H    -3.7246964    4.8387699   -1.9416045 
H    -3.0037838    3.3853698   -0.0863503 
H    -1.7639545    3.3860402   -1.3536517 
H    -4.4062385   -0.0613476   -1.1224364 
H    -4.6172048    1.2261633    0.0842756 
H    -5.1080487    1.4448881   -2.9502200 
H    -6.3519513    1.3875817   -1.6837719 
H    -5.5369958    3.5700598   -0.7556900 
H    -5.9446796    3.7522440   -2.4729682 
C    -1.2932528    3.2962113    3.2395800 
C    -0.9146638    2.5084193    1.9732594 
C    -2.0183841    1.4923006    1.5943430 
C    -2.3350632    0.5420430    2.7660483 
C    -2.7181520    1.3488350    4.0215841 
C    -1.6229056    2.3554738    4.4097607 
H    -2.1740501    3.9317192    3.0201445 
H    -0.4694548    3.9803944    3.5112039 
H     0.0329326    1.9608370    2.1422811 
H    -0.7308604    3.2011260    1.1310772 
H    -3.1569043   -0.1422276    2.4945178 
H    -1.4611431   -0.0940367    2.9892602 
H    -3.6633860    1.8933935    3.8282995 
H    -2.9199154    0.6530838    4.8558575 
H    -0.7069523    1.8061997    4.7027553 
H    -1.9362817    2.9389926    5.2935800 
