116
Energy =
C    -3.5672729   -0.0075782   -0.3509854 
C    -2.9481020    0.5559910   -1.5066181 
C    -2.1848880   -0.2277628   -2.3891919 
H    -3.0423585    1.6335975   -1.6898430 
Pd   -1.2815218   -0.1058076   -0.1798753 
P     0.9270010    0.4817856   -0.6793105 
P    -0.8362744   -1.1715239    1.9371749 
H    -3.8428279   -1.0680922   -0.4175240 
H    -2.2238283   -1.3174503   -2.2437596 
C    -6.0693970    2.3666539    2.2302572 
C    -4.9780561    2.9589796    1.5726204 
C    -4.1592618    2.1936341    0.7370251 
C    -4.4127595    0.8156086    0.5337594 
C    -5.5217380    0.2378939    1.1929838 
C    -6.3388514    1.0039105    2.0339212 
H    -6.7075690    2.9658726    2.8876072 
H    -4.7609396    4.0221907    1.7201781 
H    -3.2913519    2.6633298    0.2591548 
H    -5.7519114   -0.8213882    1.0328352 
H    -7.1944957    0.5364633    2.5322886 
C    -0.7072776    0.8227645   -6.2856710 
C    -0.5837166   -0.4862212   -5.7954194 
C    -1.0671855   -0.8037146   -4.5218691 
C    -1.6773526    0.1779050   -3.7042572 
C    -1.8299807    1.4834230   -4.2319810 
C    -1.3425394    1.8017331   -5.5021922 
H    -0.3303741    1.0758340   -7.2818141 
H    -0.1154387   -1.2616522   -6.4101825 
H    -0.9767283   -1.8281487   -4.1450661 
H    -2.3434991    2.2555229   -3.6522289 
H    -1.4688775    2.8171343   -5.8915405 
Fe    3.8935417   -0.7599641    1.1573548 
C     2.1738405    0.2385067    0.6268102 
C     1.9881962   -0.5306598    1.8476574 
C     2.9569979   -0.0510931    2.8050862 
C     3.7421119    0.9798791    2.1978272 
C     3.2852034    1.1465136    0.8543959 
C     4.2941451   -2.7664878    1.0156221 
C     4.5580185   -2.1245996   -0.2381123 
C     5.5349462   -1.0969566   -0.0259721 
C     5.8873036   -1.1109324    1.3653121 
C     5.1216786   -2.1428259    2.0089497 
C     1.0105526   -1.6676880    2.0863611 
H     3.1084758   -0.4280881    3.8164273 
H     4.5742861    1.5088944    2.6654879 
H     3.6887399    1.8555155    0.1302134 
H     3.5970452   -3.5908414    1.1790630 
H     4.1035330   -2.3820047   -1.1926677 
H     5.9417203   -0.4275505   -0.7859465 
H     6.5970079   -0.4417340    1.8550618 
H     5.1534837   -2.3925140    3.0712407 
H     1.0979652   -2.3560488    1.2246559 
C     1.4224377   -2.4225800    3.3674708 
H     2.4718970   -2.7433891    3.2560389 
H     1.3680492   -1.7738690    4.2547209 
H     0.8139697   -3.3104033    3.5614757 
C    -1.7678541   -2.8651205    1.7760561 
C    -1.3039985   -0.2465756    3.5499896 
C    -1.3137353   -4.0168534    2.6992042 
H    -0.3172615   -4.4000266    2.4278701 
H    -1.3205566   -3.7459153    3.7658254 
H    -2.0251083   -4.8530548    2.5672667 
C    -1.5118856   -1.1618063    4.7751693 
H    -1.7152941   -0.5224330    5.6540574 
H    -2.3787968   -1.8301689    4.6525417 
H    -0.6283349   -1.7742601    5.0092176 
C    -3.2711316   -2.6165298    2.0219722 
H    -3.8443589   -3.4909109    1.6630748 
H    -3.4968615   -2.4897637    3.0926175 
H    -3.6338095   -1.7274904    1.4900442 
C    -1.5537502   -3.3273679    0.3143054 
H    -2.0638764   -4.2961596    0.1605516 
H    -1.9700500   -2.6010640   -0.4053046 
H    -0.4849682   -3.4695387    0.0742903 
C    -0.1701164    0.7637549    3.8369850 
H    -0.5147866    1.4645324    4.6190534 
H     0.7458317    0.2785584    4.2041493 
H     0.0874251    1.3549888    2.9424017 
C    -2.5875857    0.5605273    3.2801148 
H    -3.4533105   -0.0704466    3.0318557 
H    -2.8441491    1.1400556    4.1856989 
H    -2.4399217    1.2710164    2.4519876 
H     1.9856009    2.6647988   -0.9402809 
C     0.3678227    4.5037596    0.4619406 
C     0.4130792    2.9674122    0.5258937 
C     0.9321518    2.3587835   -0.7966239 
C     0.1055351    2.8613420   -1.9910808 
C     0.0652632    4.3982636   -2.0487538 
C    -0.4633264    4.9939259   -0.7344452 
H     1.4011986    4.8931452    0.3745430 
H    -0.0395954    4.9012970    1.4088398 
H    -0.6066859    2.5720220    0.7171796 
H     1.0462915    2.6393868    1.3685058 
H     0.4946153    2.4555040   -2.9402417 
H    -0.9245249    2.4771270   -1.8777381 
H     1.0856806    4.7824344   -2.2436269 
H    -0.5595266    4.7185302   -2.9024399 
H    -1.5201184    4.6872882   -0.5945541 
H    -0.4591415    6.0973073   -0.7813871 
H     0.8972542    0.2162711   -3.0487078 
C     2.1289288   -2.2907546   -3.5879120 
C     1.5584064   -1.6953885   -2.2856007 
C     1.6102553   -0.1522635   -2.2869176 
C     3.0175921    0.3816857   -2.6183735 
C     3.5169641   -0.1953101   -3.9560846 
C     3.5187217   -1.7320710   -3.9408952 
H     1.4384013   -2.0534975   -4.4176826 
H     2.1624891   -3.3926331   -3.5088709 
H     2.1275794   -2.0636964   -1.4118632 
H     0.5136033   -2.0271373   -2.1358462 
H     3.0065575    1.4856638   -2.6672391 
H     3.7053717    0.0985659   -1.7999588 
H     2.8577263    0.1632117   -4.7710600 
H     4.5295515    0.1895809   -4.1734772 
H     4.2688934   -2.0883086   -3.2090026 
H     3.8398570   -2.1241606   -4.9222441 
