116
Energy =
C    -3.6601139    0.0855470   -0.3130031 
C    -3.0446615    0.9507793   -1.2569564 
C    -2.3154741    0.4547333   -2.3547198 
H    -3.1086960    2.0353813   -1.1061175 
Pd   -1.3704884   -0.1223819   -0.2549851 
P     0.8921940    0.3621675   -0.7226663 
P    -0.9543432   -1.3681451    1.7688097 
H    -3.9196308   -0.9181564   -0.6717020 
H    -2.4235173   -0.6167483   -2.5814459 
C    -6.1925789    1.5558544    2.8455445 
C    -5.1243623    2.3427574    2.3836349 
C    -4.2946723    1.8744201    1.3601762 
C    -4.5122429    0.6052122    0.7727103 
C    -5.6027498   -0.1667151    1.2358521 
C    -6.4311525    0.3018750    2.2630328 
H    -6.8380464    1.9215207    3.6505239 
H    -4.9340113    3.3242894    2.8302145 
H    -3.4520464    2.4913243    1.0292076 
H    -5.8030529   -1.1414389    0.7781744 
H    -7.2702185   -0.3121181    2.6063818 
C    -0.9802226    2.7816242   -5.7202495 
C    -1.0943512    1.3858359   -5.8111429 
C    -1.5203627    0.6434450   -4.7045622 
C    -1.8392981    1.2747636   -3.4789805 
C    -1.7466301    2.6857024   -3.4150307 
C    -1.3166375    3.4280661   -4.5189108 
H    -0.6446795    3.3649161   -6.5836805 
H    -0.8544723    0.8743677   -6.7489277 
H    -1.6139123   -0.4448095   -4.7871787 
H    -2.0068649    3.2091433   -2.4902449 
H    -1.2469596    4.5182610   -4.4446875 
Fe    3.7200809   -0.2345551    1.4404439 
C     1.8826373    0.4149308    0.8130378 
C     1.7428660   -0.5617952    1.8819449 
C     2.4684723   -0.0707216    3.0253148 
C     3.0320447    1.2037320    2.6947626 
C     2.6895870    1.5022601    1.3373325 
C     4.8863264   -0.9214672   -0.1088427 
C     5.5217376    0.1729106    0.5640678 
C     5.6919520   -0.1961879    1.9412056 
C     5.1549628   -1.5164163    2.1185185 
C     4.6564859   -1.9658593    0.8501395 
C     0.9115755   -1.8149973    1.8187792 
H     2.5982808   -0.5896742    3.9755917 
H     3.6535385    1.8204880    3.3461118 
H     2.9993522    2.3978817    0.8016162 
H     4.6369705   -0.9572586   -1.1692944 
H     5.8168623    1.1213049    0.1116031 
H     6.1312801    0.4264981    2.7226583 
H     5.1256536   -2.0741896    3.0564709 
H     4.2048005   -2.9386827    0.6472182 
H     1.0170290   -2.2253560    0.8033183 
C     1.4331077   -2.8839934    2.7986519 
H     2.5274033   -2.9432350    2.6670819 
H     1.2339917   -2.6441090    3.8524736 
H     1.0161873   -3.8787890    2.5867900 
C    -1.8217127   -3.0867420    1.7249985 
C    -1.3745977   -0.3782119    3.3569138 
C    -1.1117320   -3.9155007    0.6266303 
H    -1.6921956   -4.8382986    0.4461025 
H    -1.0692506   -3.3538698   -0.3250273 
H    -0.0888103   -4.2186888    0.8996327 
C    -1.0058167    1.0917513    3.0366088 
H    -1.2539972    1.7215971    3.9106847 
H     0.0673562    1.2152692    2.8196262 
H    -1.5807073    1.4633074    2.1712728 
C    -1.8003637   -3.8334064    3.0781051 
H    -2.2198268   -4.8450060    2.9251130 
H    -0.7922776   -3.9530828    3.4973735 
H    -2.4294884   -3.3295322    3.8288434 
C    -3.2915259   -2.9215536    1.2844419 
H    -3.7872996   -3.9081957    1.3354464 
H    -3.8562221   -2.2261227    1.9212995 
H    -3.3517606   -2.5710570    0.2431465 
C    -2.8855273   -0.4602176    3.6528486 
H    -3.1253064    0.2663113    4.4500201 
H    -3.4958204   -0.1987594    2.7786531 
H    -3.1863494   -1.4566506    4.0140060 
C    -0.6008787   -0.8427174    4.6073183 
H     0.4828406   -0.6933324    4.5015620 
H    -0.9338998   -0.2306119    5.4658514 
H    -0.7983188   -1.8969304    4.8576003 
H     0.3389392    2.0286793   -2.3172795 
C     2.3857565    3.9367790   -2.5046626 
C     2.4022314    2.4976915   -1.9557316 
C     1.0035030    2.0878518   -1.4355252 
C     0.3714801    3.1193614   -0.4671542 
C     0.4311077    4.5521689   -1.0283995 
C     1.8554950    4.9322485   -1.4614992 
H     1.7401498    3.9726894   -3.4041121 
H     3.4032923    4.2162556   -2.8316966 
H     3.1603208    2.4171970   -1.1566886 
H     2.7209227    1.8045164   -2.7538167 
H    -0.6762061    2.8244160   -0.2634700 
H     0.8864146    3.0945323    0.5092936 
H    -0.2385041    4.6360559   -1.9047741 
H     0.0504815    5.2586699   -0.2690203 
H     2.5249297    4.9340255   -0.5777702 
H     1.8692452    5.9589649   -1.8682870 
H     2.8217257   -0.2696198   -2.0058944 
C     1.9005068   -1.4952604   -4.3734897 
C     1.1426460   -0.6419128   -3.3413397 
C     1.8080315   -0.7094042   -1.9558729 
C     1.9295450   -2.1721643   -1.4931938 
C     2.6882036   -3.0298988   -2.5219237 
C     2.0324992   -2.9543448   -3.9098758 
H     2.9088279   -1.0639467   -4.5293085 
H     1.3809433   -1.4404581   -5.3472310 
H     0.1083445   -1.0210752   -3.2411527 
H     1.0645343    0.3979779   -3.6999243 
H     2.4388342   -2.2030751   -0.5165965 
H     0.9112248   -2.5861032   -1.3542838 
H     3.7352917   -2.6751317   -2.5914842 
H     2.7352158   -4.0758743   -2.1687261 
H     1.0252265   -3.4140186   -3.8614626 
H     2.6133991   -3.5417345   -4.6427856 
