142
Energy =
C     2.8390366    1.8523559   -1.4528964 
C     3.3116594    0.5437813   -1.1361521 
C     2.8659711   -0.6076335   -1.8210833 
H     3.9388535    0.4173061   -0.2449869 
Pd    1.1340032    0.5525668   -0.7970036 
P    -0.0093408   -1.3086975    0.0938886 
P    -0.4572177    2.1655195   -0.2607621 
H     2.5486083    2.0545335   -2.4945322 
H     2.3909777   -0.4574147   -2.8029537 
C     4.0154217    5.3025873    0.8466996 
C     3.8513243    4.0606475    1.4821715 
C     3.4772973    2.9380263    0.7375692 
C     3.2414314    3.0295988   -0.6548973 
C     3.4076707    4.2845498   -1.2782361 
C     3.7977619    5.4066870   -0.5346344 
H     4.2943916    6.1866037    1.4275596 
H     4.0036467    3.9671453    2.5619034 
H     3.3589989    1.9747108    1.2463320 
H     3.2325850    4.3824090   -2.3540314 
H     3.9184405    6.3714815   -1.0375657 
C     4.1361641   -4.6493138   -1.0927714 
C     3.2659979   -4.3522254   -2.1523018 
C     2.8646322   -3.0319054   -2.3788027 
C     3.3097488   -1.9810113   -1.5429592 
C     4.1954061   -2.2973349   -0.4857926 
C     4.6041215   -3.6149840   -0.2654384 
H     4.4540723   -5.6813966   -0.9128851 
H     2.9048728   -5.1498431   -2.8099374 
H     2.2012412   -2.8057197   -3.2184028 
H     4.5727834   -1.5109628    0.1729569 
H     5.2826180   -3.8381712    0.5639774 
Fe   -4.5180530    0.1452176   -1.9686476 
C    -2.5641128    0.7325188   -1.6465075 
C    -2.9132667   -0.3968329   -0.8021717 
C    -3.3534083   -1.4643875   -1.6695825 
H    -3.6870405   -2.4447992   -1.3301896 
C    -3.2508589   -1.0259133   -3.0276290 
H    -3.5216820   -1.6065971   -3.9108602 
C    -2.7752679    0.3247756   -3.0153800 
H    -2.6197269    0.9603169   -3.8905766 
C    -5.8405904    1.6827606   -2.3237318 
H    -5.6086574    2.7114003   -2.6029322 
C    -6.0074165    1.1792768   -0.9900361 
H    -5.9327177    1.7608454   -0.0693131 
C    -6.3282270   -0.2177527   -1.0813171 
H    -6.5107718   -0.8967701   -0.2463562 
C    -6.3585741   -0.5746030   -2.4697672 
H    -6.5472896   -1.5722526   -2.8707988 
C    -6.0551200    0.5994162   -3.2371241 
H    -5.9795807    0.6526735   -4.3247964 
C    -2.7109339   -0.5527505    0.6652210 
C    -1.4604015   -0.9847815    1.2003400 
C    -1.3179551   -1.1351432    2.5951411 
H    -0.3541325   -1.4412478    3.0126471 
C    -2.3970114   -0.8997975    3.4583610 
H    -2.2643616   -1.0175749    4.5385306 
C    -3.6367056   -0.5127868    2.9355029 
H    -4.4839191   -0.3270606    3.6017425 
C    -3.7801642   -0.3355610    1.5537714 
H    -4.7351532   -0.0148154    1.1322561 
C     1.2296441   -2.1484496    1.1704839 
C     1.3791927   -3.5458633    1.2087510 
H     0.7514295   -4.1861387    0.5838506 
C     2.3654681   -4.1503061    2.0049568 
C     3.2205854   -3.3196918    2.7623232 
C     3.1196734   -1.9098968    2.7232750 
C     2.1122708   -1.3466252    1.9242959 
H     2.0338223   -0.2555245    1.8669087 
C    -0.5873194   -2.5710686   -1.0888817 
C    -1.2988419   -3.7092566   -0.6567675 
H    -1.5450188   -3.8321380    0.4042944 
C    -1.7339672   -4.6758192   -1.5748624 
C    -1.4526688   -4.4699480   -2.9486910 
C    -0.7843290   -3.3148136   -3.4119035 
C    -0.3569688   -2.3766065   -2.4581040 
H     0.1259811   -1.4517372   -2.7933635 
C    -0.7641858    2.1840100    1.5592448 
C    -1.9999421    2.4261215    2.1831153 
H    -2.9045380    2.5875543    1.6024631 
C    -2.0917949    2.4391471    3.5812466 
C    -0.9619174    2.2227042    4.3809421 
H    -1.0426074    2.2257182    5.4714340 
C     0.2701506    1.9834764    3.7602614 
C     0.3690073    1.9658268    2.3635689 
H     1.3389563    1.7922564    1.8914107 
C     0.0307045    3.9225953   -0.5809574 
C     0.3043552    4.8319946    0.4556171 
H     0.2509032    4.5235859    1.5018645 
C     0.6646065    6.1534191    0.1573612 
C     0.7412119    6.5955068   -1.1693440 
H     1.0182849    7.6282014   -1.3964454 
C     0.4963156    5.6826086   -2.2031979 
C     0.1606999    4.3536604   -1.9151447 
H     0.0053971    3.6616031   -2.7494847 
C    -2.0520639    2.1117559   -1.2774306 
H    -1.6357024    2.5137477   -2.2185779 
C    -3.1251390    3.1144905   -0.8032831 
H    -3.7443104    3.4003141   -1.6659884 
H    -3.7933061    2.6502632   -0.0644579 
H    -2.6811706    4.0325141   -0.3811307 
C     0.9631881    7.1225012    1.2826701 
F     1.3163767    6.4725650    2.4176506 
F     1.9799275    7.9551578    0.9527666 
F    -0.1098375    7.8920440    1.5728663 
C     0.7082435    6.0994355   -3.6418671 
F    -0.0663924    5.3818290   -4.4897936 
F     0.4438835    7.4062501   -3.8344822 
F     2.0019340    5.8901492   -4.0155632 
C    -3.4272776    2.6904198    4.2501025 
F    -3.4817085    3.9222372    4.7999518 
F    -4.4569697    2.5865260    3.3740012 
F    -3.6469472    1.7951870    5.2452887 
C     1.4775102    1.6365685    4.5983646 
F     2.6391817    1.9554817    3.9667089 
F     1.4696415    2.2582925    5.7914712 
F     1.5206798    0.2961058    4.8410410 
C     2.5558724   -5.6476984    2.0184946 
H     2.0494776   -6.1178206    1.1603027 
H     3.6284952   -5.9014416    1.9889325 
H     2.1436341   -6.0953736    2.9419598 
C     4.1148911   -1.0563098    3.4720879 
H     5.1145035   -1.5205251    3.4436012 
H     4.1706512   -0.0420968    3.0458957 
H     3.8294464   -0.9441180    4.5331840 
C    -2.5119768   -5.8957420   -1.1422410 
H    -2.8238632   -5.8154217   -0.0884691 
H    -3.4049427   -6.0324597   -1.7752920 
H    -1.9055002   -6.8143045   -1.2467824 
C    -0.5745927   -3.0798429   -4.8889519 
H    -0.5548500   -2.0004401   -5.1142742 
H     0.3853204   -3.5081444   -5.2359218 
H    -1.3780274   -3.5544334   -5.4754437 
O     4.2651615   -3.9003489    3.4481533 
O    -1.9411600   -5.3859649   -3.8538345 
C     4.0310655   -4.1875534    4.8349831 
H     4.9549061   -4.6474743    5.2158861 
H     3.8161610   -3.2651403    5.4064896 
H     3.1885567   -4.8937494    4.9593058 
C    -1.0105347   -6.3821577   -4.3010844 
H    -1.5637622   -7.0354085   -4.9919699 
H    -0.1540160   -5.9265778   -4.8334765 
H    -0.6292979   -6.9810643   -3.4521930 
