122
Energy =
C    -1.7116321   -2.0662549    1.6920211 
C    -0.7177422   -1.8115111    2.6592255 
C    -0.6401406   -0.5412392    3.3115952 
H     0.0629258   -2.5611827    2.8354559 
Pd   -0.3502374   -0.2828221    1.1146754 
P     0.2464666    2.0186803    1.1545713 
P     0.2618834   -0.7439298   -1.1053988 
H    -2.5673882   -1.3738638    1.6599795 
H    -1.5770656    0.0069628    3.4744706 
C    -2.5357803   -5.8187188   -0.2120721 
C    -3.4937577   -4.7945026   -0.1984500 
C    -3.1907127   -3.5649749    0.3954939 
C    -1.9259657   -3.3336476    0.9894384 
C    -0.9600926   -4.3679039    0.9397445 
C    -1.2680423   -5.5981129    0.3542263 
H    -2.7693550   -6.7817734   -0.6755843 
H    -4.4767804   -4.9556838   -0.6509331 
H    -3.9488805   -2.7753181    0.4320783 
H     0.0389046   -4.2139587    1.3600831 
H    -0.5091641   -6.3853263    0.3288320 
C     2.5964856    0.5412616    5.9382220 
C     2.7743047   -0.4885378    4.9987329 
C     1.7290019   -0.8449634    4.1416458 
C     0.4747407   -0.1891842    4.2103023 
C     0.3106140    0.8412059    5.1647314 
C     1.3615188    1.2041320    6.0155179 
H     3.4165829    0.8243051    6.6060876 
H     3.7362251   -1.0038929    4.9186163 
H     1.9029549   -1.6266282    3.3955939 
H    -0.6491953    1.3630270    5.2329784 
H     1.2131964    2.0083829    6.7433560 
Fe   -3.8018293    1.2617734   -2.1751067 
C    -2.0204304    0.6218548   -1.5019512 
C    -2.3426666    1.8893073   -0.8678898 
C    -3.6145859    1.7320899   -0.2015015 
H    -4.1355573    2.5257232    0.3370048 
C    -4.0535186    0.3772861   -0.3650265 
H    -4.9879868   -0.0457437    0.0090012 
C    -3.0759736   -0.3096665   -1.1588808 
H    -3.1485727   -1.3504896   -1.4761129 
C    -3.7842929    0.9995435   -4.2008716 
H    -3.0118057    0.4902725   -4.7808783 
C    -3.8152897    2.3986434   -3.8825207 
H    -3.0751305    3.1395012   -4.1905226 
C    -4.9940789    2.6502576   -3.1000228 
H    -5.3099725    3.6144572   -2.6971641 
C    -5.6919395    1.4066974   -2.9398961 
H    -6.6176971    1.2581208   -2.3812030 
C    -4.9450604    0.3866024   -3.6200011 
H    -5.1996427   -0.6741643   -3.6663227 
C    -1.5471715    3.1464653   -0.8275914 
C    -0.3534247    3.2822910   -0.0724119 
C     0.3155284    4.5278974   -0.0525307 
H     1.2193157    4.6478289    0.5531055 
C    -0.1658770    5.6245606   -0.7730526 
H     0.3771627    6.5745391   -0.7456724 
C    -1.3567000    5.5009685   -1.5019348 
H    -1.7602149    6.3553494   -2.0549098 
C    -2.0324609    4.2777588   -1.5178676 
H    -2.9644762    4.1678545   -2.0755821 
C     2.0819661   -0.4871905   -1.2568070 
C     2.7615873   -0.1425364   -2.4363546 
H     2.2231694    0.0703832   -3.3610702 
C     4.1629745   -0.0690320   -2.4379835 
C     4.9023965   -0.4229715   -1.3024130 
H     5.9950264   -0.3951732   -1.3251316 
C     4.2251781   -0.8050576   -0.1359543 
C     2.8267210   -0.7922832   -0.0977551 
H     2.3061939   -1.0300205    0.8370830 
C     0.1383615   -2.4773400   -1.7432696 
C    -1.0087055   -2.9314409   -2.4218012 
H    -1.8486744   -2.2652580   -2.6224501 
C    -1.0975385   -4.2525965   -2.8747513 
C    -0.0525311   -5.1584810   -2.6495728 
H    -0.1249703   -6.1922976   -2.9959873 
C     1.0808608   -4.7177325   -1.9553637 
C     1.1804109   -3.3947370   -1.5048616 
H     2.0893429   -3.0902085   -0.9787083 
C    -0.7915341    0.2693673   -2.3141217 
H    -1.1017209   -0.4388842   -3.0995450 
C    -0.0987529    1.4589235   -3.0005027 
H    -0.8768464    2.1275875   -3.4027856 
H     0.5221209    2.0512679   -2.3119587 
H     0.5276275    1.1206564   -3.8400511 
C    -2.3242782   -4.6843983   -3.6498667 
F    -2.6335473   -5.9797731   -3.4174576 
F    -3.4102658   -3.9348888   -3.3161974 
F    -2.1412449   -4.5442544   -4.9818649 
C     2.1774200   -5.6923185   -1.5855388 
F     1.9888814   -6.1545182   -0.3154859 
F     2.2048708   -6.7634330   -2.4021076 
F     3.3955893   -5.1068336   -1.6108382 
C     4.8802270    0.4701798   -3.6570563 
F     6.1063455   -0.0703658   -3.8025956 
F     4.1809072    0.2459316   -4.7920490 
F     5.0419759    1.8177034   -3.5460074 
C     5.0146606   -1.3007770    1.0558186 
F     4.3050155   -1.2023880    2.2100431 
F     5.3395453   -2.6057067    0.9013468 
F     6.1670014   -0.6143155    1.2212567 
C     4.8879503    2.3151660    1.1326622 
C     4.2034449    1.9668770    2.3055769 
C     2.8032902    1.9079348    2.3180898 
C     2.0713523    2.2107985    1.1512047 
C     2.7676727    2.5360018   -0.0337152 
C     4.1668794    2.5920143   -0.0395516 
H     5.9815180    2.3540518    1.1270048 
H     4.7572394    1.7267376    3.2183256 
H     2.2845479    1.6289736    3.2390573 
H     2.2197774    2.7531845   -0.9555050 
H     4.6908763    2.8390940   -0.9680903 
C    -1.5997271    4.1959666    4.8332104 
C    -2.3628259    3.3316769    4.0307415 
C    -1.7637300    2.6655797    2.9544174 
C    -0.3965637    2.8612109    2.6666886 
C     0.3579975    3.7470532    3.4567266 
C    -0.2439236    4.4032766    4.5412824 
H    -2.0641003    4.7110292    5.6803219 
H    -3.4250729    3.1750950    4.2456370 
H    -2.3595371    1.9935487    2.3244932 
H     1.4142172    3.9268751    3.2357556 
H     0.3534266    5.0814590    5.1594601 
