106
Energy =
C    -1.9309291   -1.8357743   -2.0091367 
C    -0.7316460   -2.0789884   -2.7445355 
C     0.2953359   -2.8981904   -2.2131357 
H    -0.5351867   -1.4776517   -3.6416025 
Pd   -0.1801716   -1.1779238   -0.8195582 
P     1.9235315   -0.8119241    0.1113424 
P    -1.2355283    0.3852844    0.5535367 
H    -2.2850297   -2.6381219   -1.3440202 
H     0.0100606   -3.6261825   -1.4376212 
C    -4.9758930    0.9623028   -3.2075979 
C    -3.6231777    1.2602221   -3.4436463 
C    -2.6280346    0.3561971   -3.0605121 
C    -2.9631468   -0.8654833   -2.4326315 
C    -4.3241345   -1.1445095   -2.1882833 
C    -5.3213590   -0.2408083   -2.5758183 
H    -5.7552814    1.6695175   -3.5100638 
H    -3.3440471    2.2054358   -3.9208500 
H    -1.5748583    0.6127209   -3.2203835 
H    -4.6001834   -2.0799595   -1.6908484 
H    -6.3718658   -0.4753973   -2.3764449 
C     4.2178940   -3.5331377   -3.8606617 
C     3.8558361   -4.0924736   -2.6261987 
C     2.5667126   -3.8985559   -2.1183639 
C     1.6168513   -3.1244839   -2.8233451 
C     1.9906481   -2.5817283   -4.0744315 
C     3.2755940   -2.7865035   -4.5865250 
H     5.2243507   -3.6878366   -4.2628054 
H     4.5776085   -4.6868262   -2.0564631 
H     2.2892273   -4.3459318   -1.1579499 
H     1.2708142   -2.0012255   -4.6607214 
H     3.5446275   -2.3634263   -5.5599763 
Fe    2.5957585    0.6534250    3.2720305 
C     1.9743922    0.5166148    1.3546223 
C     0.8697071    0.9174020    2.2199091 
C     1.2620672    2.1461756    2.8558474 
C     2.5732633    2.5058566    2.4091856 
C     3.0218449    1.5074431    1.4880355 
C     4.2781269    0.6304207    4.4259980 
C     3.1150680    0.8314121    5.2425792 
C     2.2441918   -0.2929713    5.0577506 
C     2.8638992   -1.1872301    4.1211116 
C     4.1233431   -0.6154692    3.7316154 
C    -0.5050206    0.2974436    2.3062940 
H     0.6563639    2.6963939    3.5785591 
H     3.1506908    3.3692300    2.7446029 
H     3.9841855    1.4806465    0.9762262 
H     5.1179763    1.3206796    4.3268565 
H     2.9170648    1.6985342    5.8752865 
H     1.2774176   -0.4323261    5.5447979 
H     2.4523724   -2.1309547    3.7598938 
H     4.8277778   -1.0446141    3.0184443 
H    -1.1377555    0.9532334    2.9298987 
C    -0.5494515   -1.1316876    2.8676759 
H    -0.0881976   -1.1387340    3.8670102 
H    -1.5862503   -1.4914203    2.9654615 
H     0.0115322   -1.8368671    2.2311727 
C     3.1094771   -0.2905120   -1.1452322 
C     2.9170293    0.1338430   -2.4421570 
C     4.2086878    0.4632578   -2.9651265 
C     5.1027785    0.2162918   -1.9544075 
H     1.9594322    0.1847083   -2.9591199 
H     4.4444685    0.8235103   -3.9662543 
H     6.1852654    0.3023940   -1.8687608 
O     4.4551103   -0.2365165   -0.8410450 
C     2.6729295   -2.3116144    0.8008514 
C     3.9574423   -2.7972879    0.9250052 
C     3.8495156   -4.0902825    1.5307825 
C     2.5093007   -4.3114375    1.7335964 
H     4.8618158   -2.2841567    0.6022639 
H     4.6629883   -4.7710547    1.7829065 
H     1.9350577   -5.1325220    2.1603279 
O     1.7809361   -3.2443539    1.2902349 
C    -0.0758236    4.6942999   -0.6301503 
C    -0.8830912    4.5100039    0.5137755 
C    -1.2723381    3.2051981    0.8535220 
C    -0.8727827    2.1083620    0.0597411 
C    -0.0727535    2.3236535   -1.0721123 
C     0.3427099    3.6208467   -1.4319044 
H     0.2405628    5.7103485   -0.8961865 
H    -1.8842414    3.0453161    1.7487296 
H     0.2497943    1.4616152   -1.6684077 
C    -5.8078616   -0.1769284    0.9921617 
C    -4.9398005   -1.2570320    1.2567803 
C    -3.5601332   -1.0522399    1.1093495 
C    -3.0499468    0.2101127    0.7301188 
C    -3.9388950    1.2569236    0.4386896 
C    -5.3314788    1.0730952    0.5678182 
H    -6.8893447   -0.3257810    1.0984482 
H    -2.8760287   -1.8937170    1.2698398 
H    -3.5589352    2.2214952    0.0889182 
C    -1.2997129    5.6959954    1.3550201 
H    -0.4159464    6.2204065    1.7615372 
H    -1.8631204    6.4306458    0.7520694 
H    -1.9353611    5.3899691    2.2020314 
C     1.2289346    3.8247191   -2.6407038 
H     1.4755585    4.8881829   -2.7897429 
H     2.1748278    3.2634790   -2.5296518 
H     0.7365997    3.4568153   -3.5595079 
C    -5.4938385   -2.6065304    1.6564173 
H    -4.6896223   -3.3259091    1.8828066 
H    -6.1398487   -2.5224293    2.5483168 
H    -6.1152443   -3.0324224    0.8470327 
C    -6.2752656    2.2020191    0.2215696 
H    -6.2271794    2.4222943   -0.8608276 
H    -7.3185604    1.9521697    0.4733610 
H    -6.0030554    3.1294827    0.7556624 
