112
Energy =
C     2.5408820    0.6421771   -2.2111199 
C     1.3809411    0.8778487   -3.0025550 
C     0.5355818    1.9940113   -2.8067059 
H     1.0619056    0.1034787   -3.7125895 
Pd    0.7247156    0.6878463   -0.9147928 
P    -1.3870920    0.6810485    0.1631383 
P     1.6128111   -0.4732102    0.8857945 
H     3.0538180    1.5163829   -1.7831905 
H     0.9695514    2.8830594   -2.3238873 
C     5.0576835   -2.7866263   -2.8811599 
C     3.6757206   -2.8790639   -3.1157844 
C     2.8435498   -1.7830206   -2.8647679 
C     3.3787154   -0.5595221   -2.3978527 
C     4.7666058   -0.4874590   -2.1523537 
C     5.5970663   -1.5892701   -2.3909938 
H     5.7076082   -3.6457204   -3.0761496 
H     3.2464916   -3.8126208   -3.4951457 
H     1.7634181   -1.8788160   -3.0244575 
H     5.1983218    0.4482636   -1.7824566 
H     6.6708648   -1.5101711   -2.1943426 
C    -2.7089560    2.7768439   -5.5235426 
C    -2.4725388    1.4636355   -5.0831683 
C    -1.4431741    1.2008953   -4.1722903 
C    -0.6313099    2.2474014   -3.6765340 
C    -0.8995858    3.5664517   -4.1056918 
C    -1.9191594    3.8264448   -5.0306261 
H    -3.5098698    2.9804332   -6.2414013 
H    -3.0930268    0.6412057   -5.4543271 
H    -1.2661236    0.1738168   -3.8342930 
H    -0.2845382    4.3907032   -3.7277052 
H    -2.1011895    4.8534946   -5.3629436 
Fe    0.0710393   -3.7563899    0.7718848 
C     0.5099620   -1.8339848    1.3767166 
C    -0.9091430   -1.9649970    1.0290712 
C    -1.4502611   -2.9902159    1.8838742 
C    -0.4153901   -3.5016901    2.7304739 
C     0.7944084   -2.8086377    2.4137386 
C     0.0566441   -5.7890160    0.7421829 
C    -0.8575454   -5.2706706   -0.2375703 
C    -0.1057989   -4.4745070   -1.1630507 
C     1.2644997   -4.4920180   -0.7527009 
C     1.3697616   -5.3037967    0.4254320 
C     1.7414395    0.6917290    2.3196793 
C     1.7994910    0.2461966    3.6552203 
C     2.0841780    1.1521375    4.6855400 
C     2.3318457    2.5031143    4.3928470 
C     2.2653780    2.9555229    3.0665369 
C     1.9606245    2.0556455    2.0350810 
C     3.3394629   -1.1181483    0.9021445 
C     4.4052724   -0.2282315    1.1613491 
C     5.7221986   -0.7019869    1.2083500 
C     5.9955898   -2.0604063    0.9875360 
C     4.9425332   -2.9429537    0.7117543 
C     3.6226029   -2.4745602    0.6687444 
C    -1.7981490   -1.1529419    0.0922166 
H    -2.4882199   -3.3298122    1.8656174 
H    -0.5205874   -4.3057182    3.4609555 
H     1.7718988   -2.9797482    2.8689292 
H    -0.2052593   -6.4241450    1.5902930 
H    -1.9339821   -5.4503659   -0.2651844 
H    -0.4960710   -3.9670570   -2.0435082 
H     2.0811267   -3.9749473   -1.2565271 
H     2.2812286   -5.5099939    0.9896895 
H     1.6246432   -0.8071469    3.8926604 
H     1.9009922    2.4057507    0.9964380 
H     4.2111969    0.8324902    1.3480496 
H     2.7948595   -3.1564952    0.4813584 
H     2.1224264    0.7998592    5.7214327 
H     2.4429719    4.0106042    2.8346492 
H     6.5384881   -0.0042836    1.4224436 
H     5.1440888   -4.0037686    0.5302247 
H     2.5661385    3.2043397    5.2002004 
H     7.0262388   -2.4275249    1.0281799 
H    -2.8220097   -1.2453480    0.4946376 
C    -1.8294437   -1.6407320   -1.3671491 
H    -2.5137567   -1.0284332   -1.9785772 
H    -0.8210195   -1.6000909   -1.8142411 
H    -2.1875396   -2.6812970   -1.3975143 
H    -2.5961749    1.1250173   -1.8178620 
H    -0.6262638    0.6552004    2.4011051 
C    -3.5959487    3.6582871   -1.8681121 
C    -2.5725956    3.0525150   -0.8912925 
C    -2.7607668    1.5205303   -0.7955887 
C    -4.2066302    1.1744830   -0.3747360 
C    -5.2189438    1.7890039   -1.3605224 
C    -5.0374152    3.3109197   -1.4660829 
H    -3.3996222    3.2675282   -2.8817890 
H    -3.4560058    4.7530445   -1.9176078 
H    -2.7131318    3.5101147    0.1025111 
H    -1.5424290    3.2878423   -1.2128892 
H    -4.3542063    0.0806538   -0.3201018 
H    -4.4012069    1.5797330    0.6356448 
H    -5.0751484    1.3312644   -2.3591768 
H    -6.2457033    1.5381344   -1.0387251 
H    -5.2750570    3.7760709   -0.4886674 
H    -5.7500206    3.7316650   -2.1977442 
C    -3.1516319    1.0434555    4.0111034 
C    -2.7417497    0.3255486    2.7032268 
C    -1.5671196    1.0621697    1.9903551 
C    -1.5756937    2.5697668    2.3166221 
C    -1.3413260    2.8039925    3.8297653 
C    -1.9271960    1.6644572    4.6967208 
H    -3.6627733    0.3245839    4.6751471 
H    -3.8877666    1.8401594    3.7908811 
H    -3.6231087    0.2348722    2.0480947 
H    -2.4133394   -0.7015337    2.9362741 
H    -0.8127430    3.1068714    1.7252969 
H    -2.5546084    2.9892257    2.0257791 
H    -0.2613692    2.9001604    4.0264171 
H    -1.8019906    3.7683960    4.1097865 
H    -2.1859056    2.0433064    5.7005004 
H    -1.1631505    0.8772886    4.8494528 
