124
Energy =
C     2.2334562    1.7709737    1.8668137 
C     2.2114243    0.5750212    2.6347054 
C     2.6648575   -0.6563620    2.1061538 
H     1.7193618    0.5840015    3.6147873 
Pd    0.9293792    0.1846431    0.8770836 
P    -0.0256661   -1.8643307    0.2224011 
P    -0.1685766    1.4901321   -0.7423970 
H     2.9867347    1.8405214    1.0692400 
H     3.3409418   -0.6084998    1.2392730 
C     0.7961871    5.5892393    3.2595810 
C     1.7167753    5.5105054    2.2042065 
C     2.1893013    4.2639744    1.7736391 
C     1.7404655    3.0657025    2.3744508 
C     0.8187371    3.1638901    3.4447298 
C     0.3582670    4.4089617    3.8844778 
H     0.4271220    6.5622030    3.5992452 
H     2.0769490    6.4242304    1.7199460 
H     2.9263589    4.2145402    0.9643847 
H     0.4328489    2.2561235    3.9205848 
H    -0.3584003    4.4603576    4.7107608 
C     2.7874422   -4.4539680    4.1315647 
C     3.3969320   -4.2849969    2.8788864 
C     3.3589236   -3.0385129    2.2424914 
C     2.6986336   -1.9357195    2.8337526 
C     2.0968390   -2.1211290    4.1015514 
C     2.1453972   -3.3635667    4.7422014 
H     2.8193317   -5.4258559    4.6340620 
H     3.9130682   -5.1241365    2.4010426 
H     3.8543993   -2.9070339    1.2737526 
H     1.5793072   -1.2904347    4.5915597 
H     1.6753173   -3.4846219    5.7235174 
Fe   -2.2730991    0.2661336   -3.3762537 
C    -0.6440093    0.4418956   -2.1650291 
C    -1.2229502   -0.8924392   -2.0540979 
C    -1.2268234   -1.4798739   -3.3679555 
C    -0.6468391   -0.5496099   -4.2876288 
C    -0.2937305    0.6311793   -3.5609572 
C    -3.2248372    1.3827041   -4.7977055 
C    -3.7853975    0.0630605   -4.7353092 
C    -4.2822846   -0.1461531   -3.4060051 
C    -4.0282701    1.0432787   -2.6459752 
C    -3.3726723    1.9892461   -3.5069343 
C    -1.6080292   -1.5909009   -0.7765732 
H    -1.6373072   -2.4560024   -3.6296842 
H    -0.5388105   -0.6916407   -5.3644232 
H     0.1464898    1.5235936   -4.0016200 
H    -2.7447771    1.8344862   -5.6677932 
H    -3.8050324   -0.6639241   -5.5493693 
H    -4.7681202   -1.0520303   -3.0395076 
H    -4.3059832    1.2059913   -1.6047484 
H    -3.0437732    2.9938742   -3.2347674 
H    -2.1328783   -0.8706128   -0.1285340 
C    -2.5410751   -2.7936414   -0.9919699 
H    -3.3991783   -2.4637978   -1.6030295 
H    -2.0508074   -3.6268252   -1.5161711 
H    -2.9322272   -3.1722518   -0.0355206 
H     1.2688673    3.3210872   -0.4798706 
C     1.5044594    4.8837557   -2.7074277 
C     0.4460053    3.8052351   -2.4063952 
C     1.0163177    2.7710471   -1.4075563 
C     2.3251748    2.1335042   -1.9283641 
C     3.3671895    3.2181244   -2.2566678 
C     2.8066963    4.2613774   -3.2376230 
H     1.7166886    5.4489911   -1.7781259 
H     1.0982381    5.6103622   -3.4336369 
H     0.1502264    3.3124958   -3.3485928 
H    -0.4676066    4.2747323   -2.0034120 
H     2.7237033    1.4274599   -1.1760173 
H     2.1193688    1.5325871   -2.8327447 
H     3.6711266    3.7254767   -1.3194082 
H     4.2776487    2.7475712   -2.6690097 
H     2.6060465    3.7732362   -4.2120256 
H     3.5577930    5.0482481   -3.4288347 
H    -2.1861494    2.7683765   -1.1071821 
C    -2.4962601    4.4704826    1.1618034 
C    -1.2692179    3.6986970    0.6470160 
C    -1.6754853    2.4578113   -0.1766462 
C    -2.6270767    1.5620499    0.6445029 
C    -3.8455205    2.3396163    1.1725632 
C    -3.4196401    3.5671329    1.9910505 
H    -3.0596813    4.8854707    0.3025631 
H    -2.1503152    5.3308805    1.7621866 
H    -0.6672391    3.3674249    1.5093651 
H    -0.6305697    4.3785146    0.0608526 
H    -2.9694963    0.7176543    0.0228833 
H    -2.0611142    1.1316299    1.4949097 
H    -4.4651724    2.6721269    0.3159882 
H    -4.4783686    1.6639616    1.7760085 
H    -2.8808315    3.2328869    2.8999495 
H    -4.3071404    4.1278245    2.3342257 
H     1.8307833   -3.3000319    0.0604383 
C     3.2691207   -2.7528479   -2.2462038 
C     2.1178870   -1.9546796   -1.6106804 
C     1.2105104   -2.8718401   -0.7536878 
C     0.6673204   -4.0373784   -1.6106937 
C     1.8283370   -4.8374784   -2.2319881 
C     2.7439821   -3.9360253   -3.0751840 
H     3.9322105   -3.1340303   -1.4435319 
H     3.8848750   -2.0822680   -2.8724046 
H     1.5102440   -1.4788519   -2.4031566 
H     2.5156997   -1.1322722   -0.9868861 
H     0.0238681   -4.7047601   -1.0151624 
H     0.0458917   -3.6210282   -2.4231673 
H     2.4176962   -5.3100450   -1.4212041 
H     1.4214684   -5.6601981   -2.8470148 
H     2.1725259   -3.5464218   -3.9407312 
H     3.5856490   -4.5203379   -3.4876690 
H     0.4385249   -2.7333868    2.3548309 
C    -1.0122136   -4.9768513    2.9961058 
C    -0.7492916   -4.3503144    1.6120591 
C    -0.4823368   -2.8351417    1.7504688 
C    -1.6071359   -2.1037527    2.5205865 
C    -1.8528650   -2.7600259    3.8909078 
C    -2.1487726   -4.2614238    3.7435299 
H    -0.0840095   -4.9153417    3.5955912 
H    -1.2435605   -6.0502670    2.8741337 
H    -1.6170322   -4.5364369    0.9549593 
H     0.1225169   -4.8436297    1.1490152 
H    -1.3375828   -1.0367861    2.6435922 
H    -2.5471391   -2.1293618    1.9359225 
H    -0.9523214   -2.6251806    4.5208117 
H    -2.6846768   -2.2466198    4.4059861 
H    -3.0976911   -4.3941549    3.1864124 
H    -2.3008401   -4.7202545    4.7368008 
