112
Energy =
C     1.2814579    0.5838121   -2.9445165 
C     0.6198739    1.8395946   -2.9695834 
C     1.0101178    2.8795494   -2.0880856 
H    -0.2853191    1.9591635   -3.5768035 
Pd    0.3539745    1.0199471   -0.9318475 
P    -0.1998755    1.9567228    1.1267074 
P     0.2882459   -1.2242709   -0.1893247 
H     2.3117233    0.5845117   -2.5561708 
H     2.0295564    2.8176691   -1.6783206 
C     0.3856256   -2.8859005   -5.3335797 
C     1.6119146   -2.7719507   -4.6617184 
C     1.8939330   -1.6264862   -3.9075642 
C     0.9502824   -0.5785304   -3.7878286 
C    -0.2762498   -0.7039929   -4.4808242 
C    -0.5492559   -1.8398522   -5.2498934 
H     0.1629386   -3.7766422   -5.9295488 
H     2.3563913   -3.5715432   -4.7345238 
H     2.8633693   -1.5361838   -3.4048458 
H    -1.0302074    0.0866528   -4.4116664 
H    -1.5007434   -1.9136347   -5.7863482 
C    -0.6199966    6.8560048   -1.9081440 
C     0.3884744    6.4516698   -1.0199603 
C     0.9009115    5.1528220   -1.0865927 
C     0.4128682    4.2241663   -2.0353739 
C    -0.6102563    4.6440470   -2.9167634 
C    -1.1148003    5.9473548   -2.8570045 
H    -1.0179046    7.8747996   -1.8623425 
H     0.7748423    7.1506269   -0.2716549 
H     1.6857526    4.8431793   -0.3876298 
H    -1.0029936    3.9570518   -3.6733140 
H    -1.8958117    6.2584049   -3.5586343 
Fe   -1.6594839   -2.2692464    2.8229190 
C    -0.2167322   -1.4742945    1.5515907 
C    -0.7806463   -0.4550251    2.4296549 
C    -0.5446147   -0.8741517    3.7871353 
C     0.1296131   -2.1371884    3.7730663 
C     0.3064991   -2.5236645    2.4069633 
C    -2.4505261   -3.9110022    3.7461244 
C    -3.0468842   -2.7080590    4.2533773 
C    -3.6762014   -2.0289313    3.1591106 
C    -3.4604162   -2.8048751    1.9730679 
C    -2.7079450   -3.9730299    2.3386455 
C    -1.4273284    0.8549903    2.0443659 
H    -0.8694631   -0.3336273    4.6789636 
H     0.4109790   -2.7255955    4.6483391 
H     0.7782377   -3.4442819    2.0617247 
H    -1.8810699   -4.6389949    4.3268510 
H    -3.0099143   -2.3604437    5.2874832 
H    -4.2245713   -1.0881166    3.2293175 
H    -3.8176026   -2.5599652    0.9721568 
H    -2.3941264   -4.7757542    1.6704651 
H     2.4087358   -1.2316314   -1.2048910 
C     4.0194986   -3.3402655   -0.5960208 
C     2.4947675   -3.2060252   -0.4032445 
C     2.1081987   -1.7203237   -0.2595288 
C     2.8921510   -1.0332606    0.8797328 
C     4.4088465   -1.1832094    0.6745646 
C     4.8074181   -2.6611262    0.5356075 
H     4.2996507   -2.8784866   -1.5642156 
H     4.2872610   -4.4094874   -0.6699786 
H     2.1912103   -3.7732609    0.4958811 
H     1.9763165   -3.6538253   -1.2679538 
H     2.6169029    0.0336730    0.9390830 
H     2.6052020   -1.4813639    1.8484705 
H     4.7097299   -0.6330926   -0.2398961 
H     4.9440044   -0.7109435    1.5180840 
H     4.5997683   -3.1845951    1.4897415 
H     5.8930760   -2.7538115    0.3542493 
H    -0.0921102   -2.4247655   -2.2234249 
C    -2.9073994   -2.6610991   -2.5126955 
C    -2.0617867   -1.7582687   -1.5988539 
C    -0.6827861   -2.3815676   -1.2884387 
C    -0.8465244   -3.7992481   -0.7056967 
C    -1.6864873   -4.6941874   -1.6356920 
C    -3.0607679   -4.0745336   -1.9297432 
H    -2.4155155   -2.7283045   -3.5006396 
H    -3.8969096   -2.1973488   -2.6778433 
H    -2.5952411   -1.6043950   -0.6421366 
H    -1.9253765   -0.7599944   -2.0555277 
H     0.1317160   -4.2697896   -0.5237582 
H    -1.3380828   -3.7025448    0.2766917 
H    -1.1389062   -4.8415710   -2.5873024 
H    -1.8012481   -5.6938696   -1.1781076 
H    -3.6491212   -4.0279712   -0.9919814 
H    -3.6314716   -4.7151674   -2.6254156 
H    -1.6948228    1.3888557    2.9734394 
C    -2.6865973    0.7352208    1.1662235 
H    -3.3764816    0.0099034    1.6185834 
H    -3.2010590    1.7052492    1.0758960 
H    -2.4318170    0.3796029    0.1540579 
C     3.5471441    2.5614299    3.8179978 
C     2.3176902    2.2497643    4.4171333 
C     1.1746561    2.0599932    3.6274063 
C     1.2532503    2.1726383    2.2244494 
C     2.4934506    2.4923240    1.6323127 
C     3.6328081    2.6881820    2.4230948 
H     4.4376421    2.7069311    4.4380795 
H     2.2456042    2.1552560    5.5055830 
H     0.2227304    1.8299111    4.1129247 
H     2.5657042    2.5736443    0.5425448 
H     4.5888384    2.9330670    1.9492079 
C    -2.4594401    6.0153478    1.1002676 
C    -2.6861623    5.0616866    0.0961693 
C    -1.9709983    3.8589223    0.0981960 
C    -1.0371575    3.5890369    1.1212007 
C    -0.8001079    4.5575749    2.1174230 
C    -1.5123526    5.7649335    2.1038962 
H    -3.0124595    6.9602103    1.0921887 
H    -3.4056222    5.2638079   -0.7030708 
H    -2.1239666    3.1278697   -0.7037061 
H    -0.0577588    4.3738326    2.9006330 
H    -1.3240770    6.5129611    2.8811275 
