116
Energy =
C     2.3758560   -0.9732604   -1.7336934 
C     1.5095680   -1.5956886   -2.7028584 
C     0.7505132   -0.8291137   -3.5935892 
H     1.4251491   -2.6899870   -2.7199809 
Pd    0.3169694   -0.4909981   -1.1562866 
P    -2.0257157   -0.6420914   -0.7337238 
P     0.9032815    0.8321291    0.6836013 
H     2.8438637   -0.0331217   -2.0508177 
H     0.9358079    0.2560825   -3.5940244 
C     4.7132522   -3.3410231    1.0133335 
C     3.4240280   -3.7594805    0.6431562 
C     2.6608520   -2.9915897   -0.2425260 
C     3.1713634   -1.7900995   -0.7907193 
C     4.4725047   -1.3863278   -0.4128047 
C     5.2328806   -2.1511258    0.4816648 
H     5.3081471   -3.9403187    1.7099544 
H     3.0091610   -4.6852095    1.0552487 
H     1.6465785   -3.3164149   -0.5027832 
H     4.8961521   -0.4702275   -0.8365605 
H     6.2403812   -1.8216061    0.7563182 
C    -1.6003676   -2.1171080   -6.9436033 
C    -1.4226173   -0.7518053   -6.6714166 
C    -0.6560531   -0.3539733   -5.5718313 
C    -0.0530548   -1.3097464   -4.7162775 
C    -0.2229535   -2.6830793   -5.0211973 
C    -0.9922800   -3.0789938   -6.1178317 
H    -2.1996261   -2.4329825   -7.8036252 
H    -1.8802158    0.0025219   -7.3194324 
H    -0.5201307    0.7126846   -5.3595836 
H     0.2543408   -3.4473674   -4.4006993 
H    -1.1134774   -4.1443928   -6.3387156 
Fe   -1.5071684    1.9645535    3.2587130 
C    -0.5423056    1.6577986    1.4557877 
C    -1.9050143    1.1442036    1.4327016 
C    -2.7944176    2.2400927    1.7217774 
C    -2.0104899    3.4201548    1.9374377 
C    -0.6305868    3.0659452    1.7995486 
C    -2.8247759    1.7073771    4.7905526 
C    -1.9102212    0.6018295    4.7458252 
C    -0.5866179    1.1243760    4.9080717 
C    -0.6712068    2.5487212    5.0381326 
C    -2.0589920    2.9099255    4.9725883 
C    -2.3104797   -0.2717966    1.1171396 
H    -3.8800440    2.1803362    1.8087855 
H    -2.3949729    4.4056285    2.2058135 
H     0.2074711    3.7534538    1.9183371 
H    -3.9104643    1.6514559    4.6895951 
H    -2.1704941   -0.4519826    4.6307744 
H     0.3260343    0.5335117    4.9417500 
H     0.1677172    3.2346402    5.1678097 
H    -2.4630362    3.9223293    5.0286836 
H    -1.5425622   -0.9281660    1.5625950 
C    -3.6679037   -0.6353065    1.7492814 
H    -3.6578191   -0.2938291    2.7972838 
H    -4.5196661   -0.1550597    1.2482185 
H    -3.8402296   -1.7212968    1.7513555 
C    -2.5580237   -2.4837853   -0.9240768 
C    -3.0966615    0.5422389   -1.7879750 
C    -4.0834471   -2.7178430   -0.9427238 
H    -4.2726096   -3.8068478   -0.9797156 
H    -4.5948045   -2.3231471   -0.0530784 
H    -4.5522052   -2.2750070   -1.8360634 
C    -2.2884217    1.8600266   -1.8817401 
H    -2.8496195    2.5825870   -2.5029196 
H    -2.1214351    2.3185090   -0.8938029 
H    -1.3054206    1.6875790   -2.3543040 
C    -1.9501165   -3.0381869   -2.2295309 
H    -2.2062148   -4.1100757   -2.3188139 
H    -2.3209594   -2.5303067   -3.1304560 
H    -0.8513488   -2.9513483   -2.2140112 
C    -1.8985336   -3.2566972    0.2448584 
H    -2.0121842   -4.3409096    0.0638508 
H    -0.8162546   -3.0365008    0.3054575 
H    -2.3535285   -3.0375534    1.2235977 
C    -3.2338708   -0.0401379   -3.2088929 
H    -3.6601614    0.7352638   -3.8715190 
H    -2.2588057   -0.3336604   -3.6269884 
H    -3.9086387   -0.9105464   -3.2448959 
C    -4.4966718    0.8369789   -1.2143995 
H    -5.0381903    1.4873660   -1.9262097 
H    -5.0975645   -0.0757596   -1.0764772 
H    -4.4399583    1.3771453   -0.2573422 
H     1.9070047    2.9769883    1.0735007 
C     1.9768538    4.4012508   -1.2983491 
C     1.2366794    3.0885010   -0.9858160 
C     1.9186825    2.3307779    0.1743278 
C     3.3958070    2.0536761   -0.1662377 
C     4.1359179    3.3758088   -0.4457014 
C     3.4670895    4.1586724   -1.5874304 
H     1.8767151    5.0827967   -0.4305091 
H     1.4925629    4.9075157   -2.1526969 
H     1.2389204    2.4311867   -1.8790683 
H     0.1791853    3.2940493   -0.7476797 
H     3.8991210    1.4961178    0.6414702 
H     3.4486248    1.4241144   -1.0700342 
H     4.1411893    3.9919253    0.4750741 
H     5.1925472    3.1635840   -0.6887513 
H     3.5657652    3.5808562   -2.5280837 
H     3.9877743    5.1186762   -1.7519596 
H     2.7411386   -0.4851116    1.3830161 
C     1.9457692   -2.0300608    3.5661256 
C     1.0980967   -1.2187294    2.5704242 
C     1.9100287   -0.0507259    1.9723597 
C     2.4993634    0.8608815    3.0667040 
C     3.3480817    0.0342678    4.0540906 
C     2.5650294   -1.1433231    4.6589549 
H     2.7557055   -2.5317437    3.0047691 
H     1.3287071   -2.8276332    4.0184888 
H     0.2001828   -0.8074982    3.0708489 
H     0.7447389   -1.8736142    1.7522249 
H     3.1283881    1.6500380    2.6200865 
H     1.6726650    1.3751108    3.5877329 
H     4.2303032   -0.3604299    3.5128541 
H     3.7342787    0.6922818    4.8532946 
H     1.7674190   -0.7583903    5.3238890 
H     3.2294019   -1.7463802    5.3029982 
