94
Energy =
C     0.6218623    3.3361055    0.3186059 
C     0.1271411    2.9533792    1.6072782 
C     0.9969264    2.1933514    2.4472746 
H    -0.9230351    3.1091244    1.8810250 
Pd    0.4400745    1.1652106    0.4935747 
P     2.0112842   -0.4128104   -0.2229082 
P    -2.8040435    0.5118889   -0.4792675 
H     1.7110600    3.4178017    0.2039702 
H     2.0781805    2.3363029    2.3125219 
C    -1.5859898    4.7729399   -3.0697245 
C    -0.1909859    4.6121646   -3.1324168 
C     0.5122529    4.1674185   -2.0097468 
C    -0.1640102    3.8677799   -0.8000477 
C    -1.5694965    4.0378526   -0.7513382 
C    -2.2687591    4.4872055   -1.8749424 
H    -2.1388674    5.1241942   -3.9470580 
H     0.3464924    4.8387054   -4.0591285 
H     1.5973064    4.0265505   -2.0600675 
H    -2.1211764    3.8047117    0.1635612 
H    -3.3549411    4.6125238   -1.8211865 
C    -0.0693334   -0.0690437    5.9376471 
C    -1.0751913    0.3630243    5.0554235 
C    -0.7482721    1.1128177    3.9230748 
C     0.6000515    1.4562844    3.6472212 
C     1.6026681    1.0136021    4.5474192 
C     1.2714921    0.2605687    5.6789283 
H    -0.3302177   -0.6574549    6.8233431 
H    -2.1213250    0.1039001    5.2483659 
H    -1.5409812    1.4082269    3.2286094 
H     2.6491813    1.2737270    4.3509806 
H     2.0594393   -0.0650182    6.3661502 
Fe   -0.1824237   -0.2198572   -1.3208490 
C     1.5456339   -1.0812855   -1.8172291 
C     1.2434359   -0.0997049   -2.8114652 
H     1.7192624    0.8871226   -2.8731115 
C     0.6861800   -0.8083872   -4.0457700 
H     1.2721771   -0.6507053   -4.9666659 
C     0.4643038   -2.2758029   -3.5495742 
H     0.6214665   -3.0423866   -4.3236815 
C     1.3715220   -2.5005161   -2.3272061 
C    -2.0543916   -0.1813518   -2.0452638 
C    -1.8679799   -1.7214787   -2.0674151 
H    -2.8381023   -2.2567222   -2.0920047 
C    -1.0823452   -1.9851445   -3.4058905 
H    -1.6690356   -2.6891557   -4.0146060 
C    -0.8537840   -0.5816193   -4.0849567 
H    -1.3232165   -0.4402130   -5.0746088 
C    -1.2927195    0.4323137   -3.0454685 
H     2.3540316   -2.9028865   -2.6411637 
H    -1.2540586    1.5165433   -3.2040329 
C     2.4310505   -1.7532445    0.8875705 
C     2.4228266   -1.8306776    2.2642793 
C     2.9025112   -3.1357301    2.5958113 
C     3.1691842   -3.7803220    1.4053089 
H     2.1005530   -1.0439773    2.9479270 
H     3.0308229   -3.5558515    3.5933988 
O     2.8928923   -2.9403120    0.3587932 
C     3.6738499   -5.1380233    1.0573327 
H     2.9388766   -5.6889766    0.4430963 
H     4.6117121   -5.0744911    0.4770103 
H     3.8664937   -5.7130380    1.9754436 
C     3.5291830    0.5665227   -0.3567588 
C     4.8249638    0.3553257    0.0613072 
C     5.5635614    1.5222826   -0.3194698 
C     4.6800477    2.3741464   -0.9429241 
H     5.1967634   -0.5305785    0.5762584 
H     6.6246249    1.7103535   -0.1541232 
O     3.4302854    1.7999989   -0.9623840 
C     4.8030923    3.7225065   -1.5638182 
H     4.5020063    3.6992762   -2.6267408 
H     4.1622808    4.4617878   -1.0488653 
H     5.8463511    4.0673280   -1.5044755 
C    -1.6330285   -0.7376359    0.1812998 
C    -1.2803421   -1.8537956   -0.6544867 
C    -0.8676018   -2.8957476    0.2525521 
C    -0.9798558   -2.3846331    1.5285695 
H     0.9600513   -3.1919164   -1.5788741 
H    -0.5314853   -3.9045819    0.0138559 
C    -4.3877015   -0.3959540   -0.3481953 
C    -4.7321426   -1.6757406    0.0472158 
C    -6.1602722   -1.7400140    0.0265155 
C    -6.6083314   -0.5002493   -0.3793478 
H    -4.0362094   -2.4683000    0.3271571 
H    -6.7879733   -2.5945308    0.2806188 
O    -1.4436708   -1.0964902    1.5186411 
O    -5.5381627    0.3235724   -0.5994480 
C    -0.7302601   -2.9687400    2.8752993 
H    -1.6883114   -3.1363958    3.4008877 
H    -0.1968598   -3.9263154    2.7863391 
H    -0.1337054   -2.2762027    3.4913645 
C    -7.9618533    0.0780024   -0.6115555 
H    -8.0797811    0.4016360   -1.6616095 
H    -8.7341230   -0.6733153   -0.3873125 
H    -8.1310563    0.9612448    0.0303564 
