110
Energy =
C     2.2562004    2.2152491    0.8321261 
C     2.6249590    1.9200557   -0.4963758 
C     1.9470685    2.5007319   -1.6132664 
H     3.3894564    1.1543644   -0.6801590 
Pd    0.5186230    1.2821593   -0.3553550 
P    -1.4710342    1.2040141   -1.6477192 
P    -0.0933837   -0.3296167    1.2492617 
H     1.6392319    3.1134360    0.9917880 
H     1.5477975    3.5164352   -1.4864504 
C     4.3322674    0.9751856    4.3764186 
C     3.4579407    2.0721525    4.4024356 
C     2.7590396    2.4347644    3.2457621 
C     2.9317029    1.7192313    2.0381227 
C     3.7966192    0.5985707    2.0345503 
C     4.4900495    0.2339060    3.1923795 
H     4.8836257    0.6913191    5.2787599 
H     3.3062823    2.6348564    5.3278744 
H     2.0767495    3.2915073    3.2692208 
H     3.9305473    0.0081257    1.1229656 
H     5.1621175   -0.6302677    3.1719820 
C     3.0240303    1.4400785   -5.6530519 
C     3.0722601    0.4710724   -4.6374389 
C     2.7191579    0.8089169   -3.3271247 
C     2.3124102    2.1230645   -2.9963582 
C     2.2856609    3.0898125   -4.0271805 
C     2.6334980    2.7510306   -5.3410246 
H     3.2943500    1.1751946   -6.6801611 
H     3.3774885   -0.5541545   -4.8711686 
H     2.7403874    0.0361851   -2.5509516 
H     1.9994944    4.1206243   -3.7908865 
H     2.6072786    3.5166523   -6.1232273 
Fe   -2.6742783   -2.6547137    0.4102428 
C    -1.7971627   -0.9763682    1.2150154 
C    -2.8453332   -0.5774817    0.2895409 
C    -4.0610791   -1.2104452    0.7450651 
C    -3.7919119   -1.9399419    1.9468482 
C    -2.3962445   -1.8144768    2.2337528 
C    -1.3645917   -3.9591925   -0.5137234 
C    -1.8954043   -4.5257692    0.6909666 
C    -3.3243761   -4.5774416    0.5654574 
C    -3.6775218   -4.0382734   -0.7167848 
C    -2.4664292   -3.6676093   -1.3841506 
C     0.0984004    0.1234432    3.0249568 
C    -0.7599651    1.1179897    3.5414163 
C    -0.6485577    1.5336218    4.8708735 
C     0.3244608    0.9551131    5.7031854 
C     1.1758037   -0.0383525    5.2019566 
C     1.0711215   -0.4469214    3.8664605 
C     0.9925550   -1.8051006    1.0240382 
C     1.9413445   -1.8063300   -0.0141339 
C     2.7299271   -2.9348974   -0.2672646 
C     2.5801516   -4.0773964    0.5323708 
C     1.6578674   -4.0805545    1.5923760 
C     0.8669405   -2.9528573    1.8339335 
C    -2.9290674    0.6994989   -0.5386903 
H    -5.0358490   -1.1069038    0.2628992 
H    -4.5120979   -2.5279134    2.5183959 
H    -1.8795944   -2.2553090    3.0877264 
H    -0.3080312   -3.7942165   -0.7299320 
H    -1.3197326   -4.8584892    1.5550330 
H    -4.0213243   -4.9401072    1.3229963 
H    -4.6894736   -3.9269072   -1.1100785 
H    -2.4000186   -3.2565242   -2.3887754 
H    -1.5284201    1.5647094    2.9029380 
H     1.7680732   -1.1975487    3.4866178 
H     2.0469442   -0.9113662   -0.6358873 
H     0.1460297   -2.9745942    2.6546913 
H    -3.7939690    0.6021809   -1.2164756 
C    -3.2568869    1.7988912    0.5095879 
H    -3.9778881    1.3956221    1.2389475 
H    -2.3476630    2.0955479    1.0607755 
H    -3.7021562    2.6962903    0.0587384 
C     0.5126284    1.4653701    7.1137788 
F     1.4026451    2.4980743    7.1369159 
F    -0.6411747    1.9279891    7.6421377 
F     0.9971624    0.5084093    7.9354468 
H    -1.3182318    2.3018030    5.2682180 
H     1.9340562   -0.4845607    5.8509495 
H     3.4605431   -2.9309207   -1.0813706 
H     1.5602153   -4.9692899    2.2226128 
C     3.3642976   -5.3322765    0.2103532 
F     3.5943938   -6.0746593    1.3157652 
F     2.6808565   -6.1097020   -0.6653778 
F     4.5580105   -5.0419249   -0.3548643 
C    -1.4411915   -0.1420062   -3.0193441 
C    -2.0069807    2.9384509   -2.3275818 
C    -2.8502763   -0.7087330   -3.2897735 
H    -2.7764919   -1.4789806   -4.0799108 
H    -3.2832106   -1.1849787   -2.3955576 
H    -3.5434173    0.0674544   -3.6560528 
C    -3.5030780    2.9864015   -2.7070599 
H    -3.7292793    3.9854806   -3.1228088 
H    -3.7450386    2.2444055   -3.4864240 
H    -4.1812198    2.8284099   -1.8539375 
C    -0.8234056    0.3357686   -4.3499253 
H     0.1224873    0.8808839   -4.2083638 
H    -0.5991433   -0.5615821   -4.9552948 
H    -1.5172846    0.9575537   -4.9344812 
C    -0.5091609   -1.2300394   -2.4443366 
H    -0.5030203   -2.1071440   -3.1172386 
H     0.5228620   -0.8492719   -2.3798361 
H    -0.8308074   -1.5627451   -1.4445466 
C    -1.6599191    4.0034014   -1.2545770 
H    -2.1722224    3.8659856   -0.2944713 
H    -0.5740897    4.0190901   -1.0598079 
H    -1.9463524    4.9966065   -1.6458671 
C    -1.1790578    3.3151423   -3.5767951 
H    -1.2530574    4.4078268   -3.7232208 
H    -0.1161824    3.0626497   -3.4630373 
H    -1.5533329    2.8380947   -4.4919698 
