124
Energy =
C     1.4170536   -3.3213892    0.2397078 
C     2.3002395   -2.6186698   -0.6282210 
C     3.1751413   -1.6191533   -0.1361721 
H     2.2065101   -2.7516649   -1.7134223 
Pd    0.9976087   -1.1139596    0.3009145 
P     1.0724547    1.2207605   -0.0021466 
P    -1.2318402   -1.0022533    0.9766947 
H     1.7200819   -3.4283569    1.2910012 
H     3.4483992   -1.6757570    0.9285500 
C    -1.5425777   -6.1857354   -1.0204720 
C    -1.0044161   -5.2853003   -1.9555544 
C    -0.0401359   -4.3515595   -1.5620461 
C     0.4161409   -4.3000985   -0.2229054 
C    -0.1189488   -5.2272696    0.6994422 
C    -1.0917728   -6.1541742    0.3069562 
H    -2.3023763   -6.9109982   -1.3291117 
H    -1.3431228   -5.3091011   -2.9969692 
H     0.3493844   -3.6435631   -2.3018051 
H     0.2373490   -5.2184346    1.7343875 
H    -1.4975058   -6.8552832    1.0432577 
C     5.9364661    0.6962295   -2.4832071 
C     4.7928498    0.1560068   -3.0946807 
C     3.8781909   -0.5899262   -2.3457056 
C     4.0857957   -0.8111220   -0.9640244 
C     5.2304282   -0.2448933   -0.3596785 
C     6.1496558    0.4946367   -1.1121245 
H     6.6528115    1.2773459   -3.0730886 
H     4.6134666    0.3180250   -4.1627216 
H     2.9900124   -0.9947091   -2.8399123 
H     5.4002495   -0.3945017    0.7118057 
H     7.0322931    0.9197683   -0.6238109 
Fe   -2.6696029    1.7260522    2.8992153 
C    -1.3766184    0.3129264    2.2219683 
C    -0.7566615    1.6321545    2.1750525 
C    -0.7771450    2.1585546    3.5167308 
C    -1.3857824    1.1944461    4.3841910 
C    -1.7670145    0.0628963    3.5970586 
C    -4.4469439    1.6467250    1.8752629 
C    -4.6561065    1.4329038    3.2771184 
C    -4.1643282    2.5850501    3.9797128 
C    -3.6449887    3.5100850    3.0109638 
C    -3.8189732    2.9295119    1.7095205 
C    -0.1750541    2.3188915    0.9625418 
H    -0.4178745    3.1418541    3.8224353 
H    -1.5664168    1.3190729    5.4531805 
H    -2.2602230   -0.8386535    3.9605712 
H    -4.7066859    0.9483469    1.0780536 
H    -5.0960281    0.5431479    3.7308806 
H    -4.1626988    2.7233749    5.0624480 
H    -3.1907540    4.4785990    3.2283043 
H    -3.5342629    3.3939443    0.7632622 
H    -0.9678552    2.4170076    0.2030039 
C     0.3680374    3.7208666    1.2780513 
H    -0.4495237    4.3442425    1.6814647 
H     1.1814044    3.6864323    2.0205986 
H     0.7698843    4.2152109    0.3802003 
C     5.2035049    3.2686346    0.7267301 
C     4.5692150    3.3566576   -0.5262050 
C     3.3366961    2.7368861   -0.7503270 
C     2.6981761    2.0142645    0.2761844 
C     3.3297786    1.8837707    1.5432044 
C     4.5678778    2.5219120    1.7359326 
H     5.0520245    3.9015415   -1.3448085 
H     2.8739202    2.8023323   -1.7392903 
H     5.0606438    2.4207171    2.7107873 
C    -0.2824905    1.8710137   -4.3889190 
C    -0.2064569    2.9975906   -3.5464827 
C     0.2384925    2.8186427   -2.2250614 
C     0.5870325    1.5382004   -1.7475697 
C     0.4875887    0.4335623   -2.6117086 
C     0.0676213    0.5847981   -3.9446999 
H    -0.6395587    2.0004611   -5.4174635 
H     0.3043042    3.6931542   -1.5699344 
H     0.7089768   -0.5680474   -2.2212482 
C     6.5285122    3.9504273    0.9776298 
H     7.1669016    3.9281115    0.0778049 
H     6.3758361    5.0136151    1.2432992 
H     7.0783517    3.4773514    1.8081953 
C     2.7096062    1.0905300    2.6724778 
H     3.4529521    0.8614816    3.4530741 
H     1.8783278    1.6383610    3.1518427 
H     2.2798438    0.1360862    2.3073593 
C    -0.6041804    4.3630543   -4.0596064 
H     0.0326066    4.6686996   -4.9092344 
H    -1.6481992    4.3521721   -4.4202732 
H    -0.5196620    5.1332300   -3.2754624 
C     0.0039370   -0.6063164   -4.8732120 
H    -0.8806512   -0.5543927   -5.5303690 
H     0.8969470   -0.6425477   -5.5251920 
H    -0.0395898   -1.5523500   -4.3079045 
C    -3.2561292   -4.7521790    2.8704783 
C    -3.8862072   -4.0486058    1.8596148 
C    -3.2703622   -2.9011879    1.2990635 
C    -2.0287248   -2.4599289    1.7506464 
H    -3.7243075   -5.6439455    3.3011860 
H    -4.8615114   -4.3719024    1.4825774 
H    -3.7842110   -2.3605153    0.4982436 
C    -1.3560170   -3.1626900    2.8129477 
C    -1.9879785   -4.3348042    3.3699360 
C    -1.3195554   -5.0633858    4.3982723 
C    -0.0827974   -4.6582744    4.8725074 
C     0.5283776   -3.4901958    4.3453267 
C    -0.0966359   -2.7587059    3.3474198 
H    -1.8049205   -5.9556267    4.8085541 
H     0.4205649   -5.2290288    5.6593287 
H     1.4977374   -3.1615848    4.7346682 
H     0.3859138   -1.8546356    2.9588405 
C    -2.6232095    0.6607982   -0.8180976 
C    -2.1634436   -0.6200294   -0.5460331 
C    -2.2108229   -1.6241888   -1.5638702 
C    -2.7173612   -1.3229442   -2.8133558 
H    -2.6013068    1.4155237   -0.0285332 
H    -1.8467436   -2.6333891   -1.3482918 
H    -2.7636063   -2.0997302   -3.5845427 
C    -3.1618263   -0.0045821   -3.1337633 
C    -3.1121908    1.0085926   -2.1101850 
C    -3.5390440    2.3309820   -2.4254044 
C    -3.9926261    2.6437233   -3.6970424 
C    -4.0375406    1.6459551   -4.7072528 
C    -3.6347892    0.3481637   -4.4296734 
H    -3.4985293    3.1014370   -1.6481485 
H    -4.3209040    3.6625713   -3.9273607 
H    -4.3996227    1.9051992   -5.7075532 
H    -3.6762256   -0.4230330   -5.2067814 
