142
Energy =
C     2.7646158    1.9581383   -0.8652208 
C     3.2710109    0.6500672   -0.6163130 
C     2.9423917   -0.4477283   -1.4417974 
H     3.8300407    0.4648340    0.3083113 
Pd    1.0776321    0.5320764   -0.4342410 
P    -0.0367870   -1.4897094    0.0600072 
P    -0.4366105    2.1674760    0.2417869 
H     2.5279293    2.2155666   -1.9071781 
H     2.5465109   -0.2221548   -2.4434921 
C     3.5933640    5.3527981    1.6544629 
C     3.7147304    4.0525316    2.1724950 
C     3.4224266    2.9438356    1.3727610 
C     3.0385083    3.1073384    0.0203236 
C     2.9322696    4.4219813   -0.4894350 
C     3.1935003    5.5334383    0.3215936 
H     3.7955343    6.2174237    2.2934102 
H     4.0113883    3.9070841    3.2149831 
H     3.4809400    1.9405669    1.8090449 
H     2.6500776    4.5661892   -1.5374743 
H     3.0842296    6.5421733   -0.0883063 
C     4.4322546   -4.4561973   -1.0152821 
C     3.6058169   -4.1119339   -2.0952784 
C     3.1235709   -2.8046834   -2.2185154 
C     3.4451872   -1.8164661   -1.2588170 
C     4.2790468   -2.1816719   -0.1751762 
C     4.7679357   -3.4847605   -0.0574400 
H     4.8157786   -5.4769844   -0.9182704 
H     3.3429714   -4.8603857   -2.8498001 
H     2.4911183   -2.5414711   -3.0712927 
H     4.5528493   -1.4450076    0.5848937 
H     5.4058671   -3.7472499    0.7924929 
Fe   -4.3741141    0.4600479   -1.8429343 
C    -2.5964519    0.9127093   -0.9877278 
C    -2.8800426   -0.5026554   -0.8187568 
C    -3.0729287   -1.0680376   -2.1304839 
H    -3.3031434   -2.1151553   -2.3316803 
C    -2.8623333   -0.0386935   -3.1039768 
H    -2.9503274   -0.1522103   -4.1860469 
C    -2.5691384    1.1806312   -2.4087893 
H    -2.4020389    2.1554001   -2.8727030 
C    -5.7178848    1.9515835   -1.4460395 
H    -5.4895399    2.9347928   -1.0295610 
C    -6.0511707    0.7734221   -0.6975518 
H    -6.1419152    0.7105987    0.3884007 
C    -6.2636470   -0.3006630   -1.6275974 
H    -6.5235950   -1.3306976   -1.3763666 
C    -6.0717097    0.2179712   -2.9513631 
H    -6.1442706   -0.3508090   -3.8801818 
C    -5.7332818    1.6086302   -2.8396171 
H    -5.5030683    2.2806897   -3.6684964 
C    -2.8452088   -1.2390221    0.4728791 
C    -1.5997647   -1.6155046    1.0523632 
C    -1.5771617   -2.1790515    2.3450032 
H    -0.6230343   -2.4506395    2.8044578 
C    -2.7676999   -2.4032115    3.0504675 
H    -2.7265419   -2.8195037    4.0616958 
C    -3.9979842   -2.1107037    2.4493383 
H    -4.9345162   -2.3131254    2.9790898 
C    -4.0283279   -1.5354052    1.1716582 
H    -4.9785416   -1.2716662    0.7023581 
C     1.1747505   -2.3748812    1.1186568 
C     1.8493968   -1.6052617    2.0881941 
H     1.6610227   -0.5258274    2.1533188 
C     2.7680364   -2.1865716    2.9741100 
C     3.0075239   -3.5757164    2.8602292 
C     2.3639177   -4.3683681    1.8818441 
C     1.4462586   -3.7488335    1.0163939 
H     0.9717502   -4.3485314    0.2343246 
C    -0.4194136   -2.5367514   -1.3887124 
C    -1.0784734   -3.7742389   -1.2446975 
H    -1.3501813   -4.1396151   -0.2477745 
C    -1.4193356   -4.5430383   -2.3681546 
C    -1.1062227   -4.0301166   -3.6515694 
C    -0.4491543   -2.7906152   -3.8243138 
C    -0.1201607   -2.0567573   -2.6734717 
H     0.3524423   -1.0737043   -2.7812124 
C    -0.0915158    2.5334082    2.0089113 
C    -0.3147785    1.4530051    2.8861440 
H    -0.6728912    0.4925873    2.5002944 
C    -0.0881046    1.5918123    4.2617528 
C     0.3723350    2.8061489    4.7852488 
H     0.5263221    2.9211163    5.8612839 
C     0.6338077    3.8696844    3.9078631 
C     0.4237739    3.7365554    2.5281493 
H     0.6822150    4.5728378    1.8765174 
C    -0.2661268    3.6971423   -0.7667515 
C    -0.5522285    5.0049276   -0.3320991 
H    -0.8957615    5.2057954    0.6854310 
C    -0.3907009    6.0861995   -1.2104988 
C    -0.0066723    5.8816382   -2.5447242 
H     0.1135398    6.7289116   -3.2243167 
C     0.2101338    4.5732003   -2.9921020 
C     0.0876386    3.4918513   -2.1100854 
H     0.2795655    2.4748621   -2.4686251 
C    -2.3421804    1.9427007    0.0799890 
H    -2.6381323    2.9180052   -0.3432391 
C    -3.0930904    1.7756339    1.4088504 
H    -4.1680665    1.6900729    1.1821263 
H    -2.8022638    0.8771044    1.9711674 
H    -2.9375580    2.6537378    2.0566102 
C    -0.5565541    7.4956321   -0.6791981 
F    -0.8983912    8.3633426   -1.6530698 
F    -1.5006354    7.5521764    0.2877898 
F     0.6059138    7.9343838   -0.1305893 
C     0.6609418    4.2766670   -4.4035145 
F    -0.1247001    3.3306284   -4.9772441 
F     0.6527675    5.3648543   -5.1923236 
F     1.9295508    3.7767683   -4.3949756 
C    -0.3772528    0.4082166    5.1594257 
F    -0.1133054    0.6674139    6.4540764 
F    -1.6752178    0.0282649    5.0646824 
F     0.3691754   -0.6740938    4.7971729 
C     1.1560816    5.1719578    4.4812141 
F     1.1254149    6.1734044    3.5727695 
F     0.4250317    5.5570783    5.5499597 
F     2.4404329    5.0464782    4.9052337 
C     3.5010264   -1.3606200    4.0038840 
H     4.5392014   -1.7128066    4.1194711 
H     3.5068775   -0.2937237    3.7237304 
H     3.0116989   -1.4355253    4.9920538 
C     2.6934405   -5.8362173    1.7540098 
H     2.1330633   -6.4382664    2.4937674 
H     2.4343898   -6.2118381    0.7511060 
H     3.7662224   -6.0097514    1.9391364 
C    -2.1004262   -5.8850392   -2.2383826 
H    -3.1648839   -5.8248814   -2.5320224 
H    -1.6270863   -6.6257416   -2.9043965 
H    -2.0597044   -6.2523760   -1.2005154 
C    -0.1228862   -2.2743676   -5.2057988 
H    -0.9642092   -1.6888982   -5.6230031 
H     0.7567476   -1.6095052   -5.1840451 
H     0.0746859   -3.1097372   -5.8968133 
O     3.9816325   -4.1492579    3.6487493 
O    -1.4042947   -4.8001325   -4.7539535 
C     3.5392742   -4.6975417    4.8991085 
H     4.4335801   -5.1077403    5.3912082 
H     3.0896854   -3.9173884    5.5421402 
H     2.8005220   -5.5063644    4.7438657 
C    -2.6572578   -4.5202087   -5.3926782 
H    -2.7479558   -5.2337743   -6.2249887 
H    -3.5037030   -4.6608106   -4.6933999 
H    -2.6870287   -3.4876061   -5.7897789 
