98
Energy =
C     1.9948583   -0.2807940   -2.3555679 
C     2.3725832   -1.1107495   -1.2712240 
C     1.5935829   -2.2130656   -0.8531540 
H     3.2822135   -0.8638539   -0.7114930 
Pd    0.4746117   -0.1986539   -0.5437552 
P    -0.5198967   -1.1195253    1.4001034 
P    -0.8253131    1.7702884   -0.9323556 
H     1.2666517   -0.6946419   -3.0672822 
H     0.8187899   -2.5665478   -1.5484275 
C     4.6108616    2.6710760   -4.0869294 
C     3.6081825    2.0612420   -4.8550904 
C     2.7591053    1.1115170   -4.2746156 
C     2.8861120    0.7528923   -2.9117225 
C     3.9163832    1.3644270   -2.1578881 
C     4.7651975    2.3114605   -2.7373219 
H     5.2755274    3.4149955   -4.5376948 
H     3.4918116    2.3193905   -5.9126729 
H     1.9928078    0.6246905   -4.8882121 
H     4.0477487    1.1089945   -1.1008930 
H     5.5521193    2.7754489   -2.1337004 
C     2.8065265   -5.2198263    1.9686785 
C     3.5746137   -4.0514281    1.8264125 
C     3.1802230   -3.0525103    0.9341399 
C     2.0099600   -3.2026631    0.1513733 
C     1.2486781   -4.3856724    0.3046705 
C     1.6403156   -5.3813995    1.2067888 
H     3.1198659   -6.0006612    2.6693449 
H     4.4841297   -3.9174770    2.4200023 
H     3.7903447   -2.1490114    0.8476111 
H     0.3461595   -4.5258963   -0.2984263 
H     1.0378560   -6.2901227    1.3060260 
Fe   -2.9886301    1.1238188    1.7953887 
C    -2.4221411    1.7713898   -0.0353102 
C    -3.1173322    2.8251740    0.6796047 
H    -2.7212504    3.8062777    0.9385983 
C    -4.4299903    2.3619118    1.0158967 
H    -5.1744815    2.9217055    1.5848594 
C    -4.5757814    1.0271350    0.5187949 
H    -5.4488082    0.3845133    0.6450228 
C    -3.3477578    0.6550146   -0.1202529 
C    -1.6812349   -0.2262583    2.4889458 
C    -3.0388238   -0.5996168    2.8347508 
H    -3.5597648   -1.5006672    2.5093610 
C    -3.5954253    0.4541601    3.6320847 
H    -4.6147885    0.4841032    4.0213112 
C    -2.6021479    1.4747297    3.7889531 
H    -2.7264363    2.4147990    4.3290250 
C    -1.4211208    1.0587399    3.0961470 
C    -1.4831730   -2.6245394    0.9666864 
C    -1.9606541   -3.5525951    1.9165267 
H    -1.7779912   -3.3986025    2.9834906 
C    -2.6966561   -4.6717616    1.5032526 
H    -3.0501022   -5.3915372    2.2488040 
C    -2.9899957   -4.8653847    0.1443680 
H    -3.5666626   -5.7402905   -0.1728129 
C    -2.5564175   -3.9264239   -0.8034270 
H    -2.7984279   -4.0593868   -1.8629165 
C    -1.8068465   -2.8155183   -0.3931585 
H    -1.4605106   -2.0824011   -1.1325824 
C     0.8417925   -1.4863521    2.5935823 
C     0.9133118   -2.5997506    3.4494327 
H     0.1851806   -3.4094725    3.3771861 
C     1.9535857   -2.7019870    4.3837254 
H     2.0046819   -3.5802530    5.0353520 
C     2.9282409   -1.6984167    4.4785549 
H     3.7350308   -1.7836605    5.2137573 
C     2.8728150   -0.5917731    3.6183301 
H     3.6367141    0.1907734    3.6748226 
C     1.8391703   -0.4897207    2.6783352 
H     1.8076233    0.3654778    1.9907490 
H    -3.1353450   -0.3206033   -0.5595686 
H    -0.4817269    1.6060611    3.0475213 
C     0.0998894    3.3676506   -0.4231235 
C    -1.4781907    1.8921910   -2.7489276 
C     1.5303389    3.2905713   -0.9953908 
H     2.1027735    4.1712696   -0.6513963 
H     2.0427116    2.3864691   -0.6277829 
H     1.5673706    3.2759516   -2.0938226 
C    -0.5805343    4.6752190   -0.8784534 
H    -0.0164464    5.5284743   -0.4588418 
H    -0.5714300    4.7850335   -1.9740422 
H    -1.6221649    4.7623695   -0.5332280 
C     0.2301260    3.3407566    1.1154433 
H     0.8488851    4.1988402    1.4353901 
H    -0.7389669    3.4008142    1.6317392 
H     0.7399304    2.4172744    1.4424737 
C    -2.7533798    2.7572003   -2.8499601 
H    -3.0562882    2.8064824   -3.9123437 
H    -3.5923233    2.3272598   -2.2800816 
H    -2.5910232    3.7890899   -2.5024582 
C    -0.3866712    2.4544246   -3.6767385 
H    -0.7134963    2.3369434   -4.7262352 
H    -0.2047446    3.5277296   -3.5094492 
H     0.5663572    1.9199476   -3.5594058 
C    -1.8116100    0.4502127   -3.1979624 
H    -0.9252452   -0.2058934   -3.1467918 
H    -2.6142351    0.0003648   -2.5923160 
H    -2.1619662    0.4726184   -4.2462116 
