98
Energy =
C    -0.7946346   -2.9686617    0.4028960 
C    -1.5646078   -2.2576299    1.3600347 
C    -2.6350709   -1.4225737    0.9600243 
H    -1.2679378   -2.2815859    2.4158230 
Pd   -0.6237707   -0.7208476    0.0838970 
P    -1.0897604    1.5933032    0.0715791 
P     1.4697680   -0.7720949   -1.0283185 
H    -1.2833104   -3.1868427   -0.5575132 
H    -3.0776174   -1.6142896   -0.0287213 
C     2.4847975   -5.5939540    1.3423938 
C     2.1373390   -4.5657178    2.2353490 
C     1.0740695   -3.7057492    1.9431487 
C     0.3240131   -3.8617060    0.7533833 
C     0.6753914   -4.9108226   -0.1274813 
C     1.7475563   -5.7648281    0.1609344 
H     3.3232718   -6.2598674    1.5698763 
H     2.7082340   -4.4274494    3.1593126 
H     0.8450994   -2.8837646    2.6296380 
H     0.0940370   -5.0620129   -1.0437479 
H     2.0032255   -6.5705744   -0.5348223 
C    -5.2406915    0.7316956    3.6273866 
C    -3.9399517    0.4002373    4.0437254 
C    -3.0842660   -0.3048287    3.1913566 
C    -3.5050568   -0.6901191    1.8974955 
C    -4.8236685   -0.3656030    1.5013321 
C    -5.6823129    0.3373399    2.3556934 
H    -5.9075411    1.2861529    4.2953702 
H    -3.5917963    0.6944053    5.0392871 
H    -2.0733966   -0.5495472    3.5323977 
H    -5.1777899   -0.6758616    0.5124731 
H    -6.6993259    0.5756233    2.0280778 
Fe    1.5011406    2.5353671   -1.8651505 
C     2.3415092    0.8061363   -1.3042210 
C     2.5323749    1.8205120   -0.2876571 
H     2.1881918    1.7570694    0.7442720 
C     3.2514215    2.9152125   -0.8688806 
H     3.5222796    3.8420605   -0.3604408 
C     3.5185014    2.5957185   -2.2395733 
H     4.0271534    3.2368771   -2.9616004 
C     2.9701916    1.3000262   -2.5143180 
C    -0.4194751    2.5629353   -1.3147124 
C    -0.2887116    2.0643414   -2.6683241 
H    -0.5871801    1.0731713   -3.0079692 
C     0.3356703    3.0784924   -3.4644589 
H     0.5986332    2.9902133   -4.5199695 
C     0.5896865    4.2118277   -2.6252503 
H     1.0798425    5.1385935   -2.9286686 
C     0.1227703    3.9083173   -1.3042467 
H     3.0089846    0.7921978   -3.4788367 
H     0.1930328    4.5734368   -0.4421676 
C    -0.4663918    2.4743216    1.6246209 
C    -1.6980103    3.2409788    2.1778237 
C    -2.6514413    3.5650889    1.0184026 
C    -2.8420566    2.2728019    0.1979111 
H     0.2905894    3.1918248    1.2592475 
H    -2.2234156    2.5926799    2.9038245 
H    -1.3839615    4.1507775    2.7178570 
H    -3.6259251    3.9356797    1.3843902 
H    -2.2270202    4.3572976    0.3723558 
H    -3.3955620    1.5446214    0.8160241 
C     1.4697665   -1.5691474   -2.7471397 
C     2.7589340   -2.4521237   -2.7839684 
C     3.7163989   -2.0803998   -1.6393894 
C     2.8502922   -1.8662409   -0.3832662 
H     1.5432274   -0.7291434   -3.4598328 
H     2.4503163   -3.5057780   -2.6541238 
H     3.2480978   -2.3790707   -3.7704671 
H     4.4624669   -2.8779742   -1.4701202 
H     4.2758737   -1.1587223   -1.8800792 
H     2.3304580   -2.8154117   -0.1668208 
C     3.5570851   -1.4007296    0.9138159 
H     2.8233488   -0.8710060    1.5527921 
H     3.8295222   -2.3103655    1.4788251 
C     4.8173398   -0.5421373    0.7327518 
H     5.6152940   -1.1092450    0.2232475 
H     4.6263662    0.3711336    0.1463192 
H     5.2089650   -0.2348834    1.7177945 
C     0.2195392   -2.3988503   -3.0995697 
H     0.4385287   -2.9197888   -4.0514416 
H     0.1044562   -3.1979460   -2.3452316 
C    -1.0887895   -1.6203335   -3.2413206 
H    -1.9294785   -2.2947405   -3.4780403 
H    -1.3384431   -1.0937036   -2.2962408 
H    -1.0278161   -0.8658822   -4.0458116 
C     0.2020510    1.5337281    2.6460604 
H     0.9757329    0.9252465    2.1406614 
H    -0.5518168    0.8120763    3.0082081 
C     0.8251582    2.2810928    3.8324538 
H     1.3144318    1.5776860    4.5279788 
H     1.5882946    3.0032137    3.4889081 
H     0.0648921    2.8425078    4.4029157 
C    -3.5647737    2.4610278   -1.1439531 
H    -2.9963254    3.1785845   -1.7652406 
H    -4.5384758    2.9426214   -0.9316006 
C    -3.7972002    1.1627714   -1.9254587 
H    -4.4231420    0.4577620   -1.3522749 
H    -4.3038496    1.3614913   -2.8847862 
H    -2.8438445    0.6522766   -2.1491197 
