122
Energy =
C     0.6413074   -0.8144247   -3.5831240 
C     0.7831897    0.5825176   -3.4269487 
C     1.8093563    1.1397874   -2.6064368 
H     0.0116178    1.2523663   -3.8283807 
Pd    0.4728127   -0.1199505   -1.3585215 
P     1.0504437    0.8338204    0.7047649 
P    -0.9514978   -1.8309019   -0.5347644 
H     1.5019350   -1.4420585   -3.3092501 
H     2.7455870    0.5685241   -2.5113686 
C    -2.3561482   -2.8277680   -5.9153822 
C    -1.4901444   -3.5529819   -5.0831528 
C    -0.5030414   -2.8894763   -4.3473598 
C    -0.3767895   -1.4819098   -4.4102029 
C    -1.2415477   -0.7654366   -5.2723176 
C    -2.2182678   -1.4332941   -6.0172317 
H    -3.1262425   -3.3469415   -6.4949146 
H    -1.5808037   -4.6413691   -5.0088067 
H     0.1693312   -3.4621099   -3.7017738 
H    -1.1443501    0.3203887   -5.3732936 
H    -2.8722921   -0.8651646   -6.6868473 
C     2.2062928    5.3762644   -1.9485269 
C     0.9345848    4.7794660   -1.9138808 
C     0.7982070    3.4040118   -2.1314757 
C     1.9322738    2.5962450   -2.3771671 
C     3.2039407    3.2059493   -2.4070634 
C     3.3364931    4.5861249   -2.2028975 
H     2.3173374    6.4489860   -1.7636825 
H     0.0481590    5.3906887   -1.7123073 
H    -0.1923479    2.9362290   -2.0856211 
H     4.0931754    2.5926457   -2.5861714 
H     4.3296415    5.0449318   -2.2222845 
Fe   -3.4937789    2.1230648    1.4324479 
C    -1.6311775    1.6429990    0.7404708 
C    -2.3897724    0.4392911    1.0434322 
C    -3.6002133    0.4873085    0.2573940 
H    -4.3892075   -0.2644659    0.2740938 
C    -3.5822280    1.6748321   -0.5425611 
H    -4.3711113    1.9980638   -1.2238644 
C    -2.3758171    2.3874244   -0.2455850 
H    -2.0821069    3.3561543   -0.6555006 
C    -4.7043244    3.7513585    1.6538677 
H    -4.9616215    4.4559565    0.8607646 
C    -3.5780442    3.8504533    2.5364867 
H    -2.8466743    4.6607963    2.5459682 
C    -3.5945578    2.7071143    3.4042136 
H    -2.8838409    2.5013040    4.2060915 
C    -4.7289958    1.8996904    3.0535839 
H    -5.0183031    0.9547657    3.5170938 
C    -5.4156289    2.5467275    1.9742866 
H    -6.3052482    2.1722493    1.4644558 
C    -1.9397968   -0.7132009    1.8759890 
C    -1.2794084   -1.8304048    1.2841118 
C    -0.8500146   -2.9009714    2.0927634 
H    -0.3166855   -3.7437516    1.6418824 
C    -1.0776978   -2.8868946    3.4761330 
H    -0.7258391   -3.7184304    4.0941701 
C    -1.7379610   -1.8002979    4.0639323 
H    -1.9081337   -1.7786131    5.1445320 
C    -2.1611185   -0.7293695    3.2655599 
H    -2.6777980    0.1244979    3.7103636 
C     1.5012309   -0.4251446    1.9891900 
C     1.2733593   -0.3067638    3.3716926 
H     0.7409549    0.5433070    3.7900062 
C     1.7118132   -1.3101600    4.2457688 
C     2.4103435   -2.4288793    3.7722932 
H     2.7520904   -3.2064450    4.4610586 
C     2.6430695   -2.5462325    2.3973573 
C     2.1853239   -1.5593257    1.5154898 
H     2.3556830   -1.6852463    0.4439788 
C     2.6134858    1.8306514    0.7012877 
C     2.6667974    3.2035806    1.0011546 
H     1.7713650    3.7696288    1.2622987 
C     3.8861324    3.8925723    0.9426363 
C     5.0661297    3.2361573    0.5682001 
H     6.0115491    3.7807183    0.5026250 
C     5.0080645    1.8754232    0.2442255 
C     3.7974121    1.1750152    0.3189268 
H     3.7912497    0.1114197    0.0620108 
C    -0.2682652    2.0570539    1.2558032 
H     0.0303730    2.9154204    0.6247150 
C    -0.2372840    2.5074801    2.7284391 
H    -0.7933092    3.4531998    2.8153312 
H    -0.7397887    1.7697036    3.3703335 
H     0.7883794    2.6743802    3.0990670 
C     3.9399447    5.3674284    1.2845011 
F     4.7055085    6.0477806    0.3969142 
F     2.7067571    5.9305461    1.2764715 
F     4.4712460    5.5695102    2.5101468 
C     6.2210756    1.1594300   -0.3071997 
F     6.3052380   -0.1084627    0.1567123 
F     6.1343842    1.0744586   -1.6668633 
F     7.3705222    1.7948678   -0.0142837 
C     1.4102164   -1.2116392    5.7269034 
F     0.8186112   -2.3505158    6.1718460 
F     2.5322689   -1.0341651    6.4545195 
F     0.5694897   -0.1856583    6.0034834 
C     3.2993662   -3.7933599    1.8492529 
F     3.9163106   -3.5536863    0.6641368 
F     4.2126488   -4.2992011    2.7002475 
F     2.3739330   -4.7658366    1.6260842 
C     1.0680862   -5.9072201   -1.5962993 
C     1.8165305   -4.7227960   -1.5590950 
C     1.1917772   -3.5153521   -1.2225851 
C    -0.1818448   -3.4689112   -0.9098278 
C    -0.9259200   -4.6665859   -0.9551229 
C    -0.3024192   -5.8745905   -1.2955847 
H     1.5499589   -6.8536341   -1.8617947 
H     2.8868602   -4.7353200   -1.7847295 
H     1.7746946   -2.5875677   -1.2269260 
H    -1.9980979   -4.6616679   -0.7440738 
H    -0.8939155   -6.7953275   -1.3298447 
C    -5.2221794   -2.0864678   -2.3563781 
C    -4.9169562   -2.8132487   -1.1936937 
C    -3.6341390   -2.7401965   -0.6346759 
C    -2.6431650   -1.9417860   -1.2453760 
C    -2.9634543   -1.1962560   -2.3919464 
C    -4.2455376   -1.2743363   -2.9508689 
H    -6.2258432   -2.1456758   -2.7900993 
H    -5.6829393   -3.4323096   -0.7151174 
H    -3.4167151   -3.2751073    0.2963184 
H    -2.2137072   -0.5340113   -2.8307954 
H    -4.4798628   -0.6934545   -3.8484323 
