116
Energy =
C    -3.7223709   -0.1163413   -0.3434341 
C    -3.0557092    0.5693876   -1.3885704 
C    -2.2373364   -0.1169032   -2.3142467 
H    -3.1385762    1.6614944   -1.4514332 
Pd   -1.3571479   -0.2172969   -0.1864961 
P     0.8188319    0.3856913   -0.8064083 
P    -0.8349465   -1.1382982    1.9650827 
H    -3.9015638   -1.1890247   -0.4990473 
H    -2.3443907   -1.2118516   -2.3452184 
C    -6.4817823    1.7812323    2.3632971 
C    -5.4714595    2.5410948    1.7494278 
C    -4.5665722    1.9353542    0.8734381 
C    -4.6494496    0.5518547    0.5842795 
C    -5.6813228   -0.1951218    1.1991881 
C    -6.5846945    0.4111684    2.0808117 
H    -7.1867015    2.2570467    3.0525631 
H    -5.3858284    3.6117366    1.9627611 
H    -3.7668879    2.5395989    0.4299258 
H    -5.7828519   -1.2620138    0.9709012 
H    -7.3770304   -0.1870187    2.5426455 
C    -0.4733642    1.4455294   -5.9151337 
C    -0.5937340    0.0621898   -5.7097256 
C    -1.1788357   -0.4232630   -4.5353247 
C    -1.6570864    0.4583626   -3.5367957 
C    -1.5703898    1.8501465   -3.7817979 
C    -0.9748618    2.3356852   -4.9508726 
H    -0.0098395    1.8292450   -6.8295238 
H    -0.2295553   -0.6398348   -6.4668002 
H    -1.2651574   -1.5037795   -4.3770222 
H    -1.9773773    2.5640209   -3.0588462 
H    -0.9105604    3.4160429   -5.1165753 
Fe    3.8305343   -0.6591007    1.0596413 
C     2.0902551    0.2901443    0.4915432 
C     1.9503456   -0.3773344    1.7797600 
C     2.9379747    0.1946194    2.6640669 
C     3.7000225    1.1690785    1.9444497 
C     3.2036696    1.2149930    0.6051194 
C     4.2274709   -2.6708412    1.1442873 
C     4.4096589   -2.1912401   -0.1925868 
C     5.3998969   -1.1521551   -0.1690126 
C     5.8356285   -0.9941367    1.1886015 
C     5.1122687   -1.9331799    2.0006031 
C     1.0252931   -1.5294758    2.1347901 
H     3.1205123   -0.0908583    3.6999153 
H     4.5412310    1.7414343    2.3393741 
H     3.5821485    1.8531936   -0.1932478 
H     3.5436183   -3.4648553    1.4506347 
H     3.8898890   -2.5594522   -1.0761462 
H     5.7625703   -0.5855714   -1.0283899 
H     6.5738246   -0.2741991    1.5464199 
H     5.2081242   -2.0494108    3.0819649 
H     1.1396792   -2.2862109    1.3360839 
C     1.4735681   -2.1546346    3.4725636 
H     2.5314404   -2.4523016    3.3825031 
H     1.4041363   -1.4339104    4.3009554 
H     0.8934119   -3.0408412    3.7480665 
C    -1.6759977   -2.8792763    1.8836597 
C    -1.3399627   -0.1457149    3.5245815 
C    -1.4297109   -3.3910628    0.4427913 
H    -1.8947956   -4.3873144    0.3259412 
H    -1.8733001   -2.7129265   -0.3096459 
H    -0.3542274   -3.4941561    0.2133786 
C    -1.5208702   -0.9997146    4.7972053 
H    -1.7586401   -0.3226533    5.6384442 
H    -2.3585781   -1.7091047    4.7044853 
H    -0.6154638   -1.5616491    5.0708178 
C    -1.1661871   -3.9579267    2.8625693 
H    -0.1402942   -4.2828943    2.6266068 
H    -1.2126568   -3.6411779    3.9158653 
H    -1.8168497   -4.8457081    2.7566326 
C    -3.1912733   -2.6932299    2.1037816 
H    -3.7159066   -3.6197844    1.8067898 
H    -3.4355405   -2.4982273    3.1600945 
H    -3.5899852   -1.8655252    1.5026109 
C    -0.2452240    0.9222165    3.7557557 
H    -0.6183020    1.6508113    4.4984049 
H     0.6884712    0.4945435    4.1490960 
H    -0.0057350    1.4738930    2.8312268 
C    -2.6516723    0.5937323    3.2038212 
H    -3.4904635   -0.0849081    2.9889708 
H    -2.9379465    1.2174033    4.0702505 
H    -2.5236567    1.2572758    2.3342186 
H    -0.4232914    2.1850617   -1.6593710 
C     0.9771924    4.4861677   -2.1162849 
C     1.5053093    3.0499661   -1.9242902 
C     0.5157459    2.2254996   -1.0765534 
C     0.1877694    2.9103272    0.2697810 
C    -0.3199997    4.3461762    0.0528947 
C     0.6760652    5.1729656   -0.7751894 
H     0.0510866    4.4488403   -2.7235330 
H     1.7108834    5.0718756   -2.6985573 
H     2.4948923    3.0915668   -1.4344454 
H     1.6421376    2.5772600   -2.9117917 
H    -0.5753251    2.3138892    0.8061068 
H     1.0914181    2.9256901    0.9077308 
H    -1.2945618    4.3094566   -0.4752632 
H    -0.5082370    4.8257168    1.0302856 
H     1.6175361    5.2882491   -0.2026985 
H     0.2835280    6.1912045   -0.9458652 
H     0.8701496    0.1228439   -3.1730685 
C     1.7756000   -2.5120963   -3.6858326 
C     1.2653237   -1.8582517   -2.3886479 
C     1.4996890   -0.3299083   -2.3851120 
C     2.9767275    0.0145532   -2.6673202 
C     3.4515712   -0.6342640   -3.9813170 
C     3.2422844   -2.1564498   -3.9782106 
H     1.1506912   -2.1614128   -4.5287795 
H     1.6442046   -3.6077817   -3.6272195 
H     1.7814289   -2.2988329   -1.5127484 
H     0.1885707   -2.0669384   -2.2495819 
H     3.1186523    1.1053647   -2.7224284 
H     3.5850662   -0.3379152   -1.8188976 
H     2.8891013   -0.1898748   -4.8261715 
H     4.5166676   -0.3911819   -4.1477225 
H     3.8982499   -2.6168493   -3.2139174 
H     3.5500211   -2.5877278   -4.9473446 
