110
Energy =
C     0.9674266    3.0944648    0.8865333 
C     1.8611910    3.0470793   -0.2065092 
C     1.3885659    3.1451494   -1.5472035 
H     2.9245053    2.8484685   -0.0222426 
Pd    0.5431945    1.2921163   -0.4575875 
P    -0.8947259    0.1546010   -2.0983154 
P     0.0978113   -0.3030782    1.1714907 
H    -0.0623313    3.4233386    0.6766721 
H     0.4681889    3.7229863   -1.7040618 
C     1.9447234    3.3192733    5.0623128 
C     0.6254795    3.0750023    4.6479458 
C     0.3230672    3.0012520    3.2853718 
C     1.3362515    3.1465901    2.3072777 
C     2.6605256    3.3945796    2.7394386 
C     2.9571529    3.4870880    4.1033736 
H     2.1822109    3.3721860    6.1285193 
H    -0.1646883    2.9412930    5.3933534 
H    -0.7074651    2.8164306    2.9609327 
H     3.4582560    3.5463339    2.0052591 
H     3.9835387    3.6953523    4.4225502 
C     4.0013707    2.9494904   -4.9636460 
C     4.3277104    2.2451366   -3.7922906 
C     3.4842999    2.3011764   -2.6790821 
C     2.2935937    3.0658682   -2.7071071 
C     1.9861724    3.7787514   -3.8891723 
C     2.8292730    3.7192914   -5.0056200 
H     4.6604974    2.9008965   -5.8363164 
H     5.2412835    1.6427976   -3.7524935 
H     3.7355825    1.7191655   -1.7848546 
H     1.0837336    4.3989939   -3.9251929 
H     2.5742461    4.2823538   -5.9093379 
Fe   -3.2403975   -1.6406697    1.7394378 
C    -1.7083695   -0.4090273    1.2261811 
C    -2.4930230   -0.7308041    0.0444720 
C    -3.8508679   -0.3338512    0.3061163 
C    -3.9072444    0.2748677    1.6032865 
C    -2.5949839    0.2379505    2.1753035 
C    -3.2387187   -3.6865005    1.5491503 
C    -2.6097494   -3.3012635    2.7826175 
C    -3.5588678   -2.5452527    3.5470980 
C    -4.7766532   -2.4682939    2.7907478 
C    -4.5775231   -3.1699946    1.5542085 
C     0.7030859   -0.2577237    2.9024409 
C    -0.0728940   -0.7320747    3.9782181 
C     0.4545589   -0.7314425    5.2745021 
C     1.7635427   -0.2768465    5.4970960 
C     2.5583256    0.1504054    4.4216110 
C     2.0263418    0.1663601    3.1297036 
C     0.8565841   -1.8917724    0.6234410 
C     2.1991043   -1.8538993    0.1934549 
C     2.8234384   -3.0181075   -0.2656384 
C     2.0999400   -4.2209595   -0.3224976 
C     0.7711460   -4.2704657    0.1264879 
C     0.1563185   -3.1091721    0.6092652 
C    -1.9131275   -1.2381527   -1.2475463 
H    -4.7001779   -0.4797931   -0.3627301 
H    -4.8023006    0.6650627    2.0909038 
H    -2.3191718    0.6298738    3.1549457 
H    -2.7896518   -4.2835975    0.7528957 
H    -1.5906653   -3.5431015    3.0910158 
H    -3.3870037   -2.1034091    4.5305309 
H    -5.6872567   -1.9477704    3.0926596 
H    -5.3127915   -3.2825080    0.7554306 
H    -1.0799953   -1.1163190    3.7953886 
H     2.6389384    0.5233822    2.2957424 
H     2.7494193   -0.9062968    0.1906506 
H    -0.8813862   -3.1202616    0.9486821 
H    -1.0809879   -1.9115722   -0.9891329 
C    -2.9156433   -2.0730358   -2.0631128 
H    -3.2488910   -2.9100283   -1.4248382 
H    -3.8080062   -1.5083740   -2.3644397 
H    -2.4599754   -2.4978924   -2.9689786 
C     2.2975780   -0.1823458    6.9091187 
F     2.0010861    1.0315574    7.4528380 
F     1.7562459   -1.1193635    7.7171910 
F     3.6412234   -0.3171393    6.9502987 
H    -0.1449609   -1.0943269    6.1144968 
H     3.5831871    0.4845070    4.6012328 
H     3.8624025   -2.9923677   -0.6064140 
H     0.2213041   -5.2155912    0.0930015 
C     2.7261724   -5.4379638   -0.9674001 
F     2.1859260   -6.5876590   -0.5081243 
F     2.5301328   -5.4082374   -2.3125640 
F     4.0599813   -5.4873079   -0.7584733 
C    -0.0135835   -0.7500184   -3.5535282 
C    -2.1166858    1.5031305   -2.7210752 
C    -0.8836265   -0.9598615   -4.8110943 
H    -0.2877305   -1.5231854   -5.5525212 
H    -1.7940087   -1.5451667   -4.6086711 
H    -1.1781631   -0.0105143   -5.2840882 
C    -1.4077799    2.3759825   -3.7772087 
H    -2.0152046    3.2820110   -3.9561333 
H    -0.4120192    2.6947854   -3.4386875 
H    -1.2913200    1.8597552   -4.7426291 
C     1.2346890    0.0823954   -3.9118499 
H     1.7904384   -0.4278733   -4.7195116 
H     0.9932772    1.0975865   -4.2615536 
H     1.9058978    0.1766281   -3.0426921 
C     0.4751288   -2.1229673   -3.0346772 
H     1.1564903   -2.5625822   -3.7849592 
H     1.0421857   -2.0248253   -2.0956025 
H    -0.3434507   -2.8435823   -2.8785775 
C    -3.4309982    0.9482643   -3.3081082 
H    -4.0032208    1.7912047   -3.7375807 
H    -3.2682452    0.2135245   -4.1110141 
H    -4.0605760    0.4918090   -2.5289320 
C    -2.4600529    2.3914781   -1.4997543 
H    -3.1906872    3.1606815   -1.8113787 
H    -2.9017538    1.8157823   -0.6710133 
H    -1.5643404    2.9096985   -1.1171289 
