122
Energy =
C     0.6348132   -0.8202167   -3.5835066 
C     0.7774791    0.5770553   -3.4307346 
C     1.8046467    1.1359231   -2.6126063 
H     0.0058713    1.2463149   -3.8330418 
Pd    0.4695343   -0.1215111   -1.3608048 
P     1.0490529    0.8368006    0.6996230 
P    -0.9506051   -1.8339523   -0.5330242 
H     1.4956343   -1.4476887   -3.3098514 
H     2.7402751    0.5638881   -2.5164593 
C    -2.3659115   -2.8387508   -5.9071469 
C    -1.4958232   -3.5624287   -5.0778707 
C    -0.5079757   -2.8970837   -4.3447167 
C    -0.3847692   -1.4892450   -4.4075277 
C    -1.2536788   -0.7743146   -5.2667504 
C    -2.2313291   -1.4439283   -6.0088221 
H    -3.1366818   -3.3593223   -6.4845207 
H    -1.5837241   -4.6510695   -5.0039085 
H     0.1677690   -3.4685605   -3.7016289 
H    -1.1593183    0.3117832   -5.3674648 
H    -2.8887041   -0.8769119   -6.6760956 
C     2.2057058    5.3750445   -1.9760280 
C     0.9332933    4.7799185   -1.9388079 
C     0.7955260    3.4032570   -2.1476414 
C     1.9289839    2.5927934   -2.3877122 
C     3.2016024    3.2005550   -2.4180843 
C     3.3355088    4.5818257   -2.2223663 
H     2.3175870    6.4489028   -1.7985149 
H     0.0474090    5.3934619   -1.7421083 
H    -0.1957629    2.9371137   -2.0999913 
H     4.0906896    2.5853161   -2.5913610 
H     4.3293255    5.0391853   -2.2426098 
Fe   -3.4965941    2.1137331    1.4420054 
C    -1.6362970    1.6363462    0.7421174 
C    -2.3909009    0.4315404    1.0501580 
C    -3.6051625    0.4761567    0.2698749 
H    -4.3925165   -0.2772126    0.2912363 
C    -3.5932391    1.6625370   -0.5319045 
H    -4.3858977    1.9832159   -1.2100197 
C    -2.3867429    2.3778264   -0.2417352 
H    -2.0962994    3.3461975   -0.6549263 
C    -4.7042349    3.7437209    1.6677732 
H    -4.9613737    4.4501774    0.8762766 
C    -3.5769695    3.8395746    2.5494325 
H    -2.8447196    4.6490973    2.5597501 
C    -3.5941363    2.6947047    3.4150410 
H    -2.8827151    2.4864694    4.2156913 
C    -4.7301329    1.8895475    3.0642039 
H    -5.0201321    0.9441255    3.5262844 
C    -5.4170357    2.5396027    1.9868414 
H    -6.3077800    2.1673572    1.4773370 
C    -1.9345617   -0.7195628    1.8811318 
C    -1.2723129   -1.8344265    1.2868951 
C    -0.8369323   -2.9038857    2.0937954 
H    -0.3025284   -3.7449126    1.6408382 
C    -1.0603342   -2.8909015    3.4778488 
H    -0.7036969   -3.7213249    4.0946210 
C    -1.7226785   -1.8067771    4.0679708 
H    -1.8898623   -1.7863313    5.1490602 
C    -2.1519162   -0.7370050    3.2713027 
H    -2.6704175    0.1148714    3.7178615 
C     1.5067553   -0.4200484    1.9836327 
C     2.1948529   -1.5510566    1.5083445 
H     2.3634933   -1.6758481    0.4364365 
C     2.6598806   -2.5356456    2.3890007 
C     2.4304605   -2.4191283    3.7645267 
H     2.7786277   -3.1945066    4.4525619 
C     1.7275716   -1.3038039    4.2397115 
C     1.2817255   -0.3026917    3.3667569 
H     0.7465958    0.5450224    3.7863899 
C     2.6074754    1.8411793    0.6956237 
C     2.6509356    3.2165866    0.9848898 
H     1.7506563    3.7797215    1.2353989 
C     3.8667810    3.9122479    0.9301435 
C     5.0531836    3.2596021    0.5706672 
H     5.9963869    3.8086976    0.5102485 
C     5.0052044    1.8959140    0.2562451 
C     3.7980170    1.1894039    0.3263005 
H     3.8006259    0.1237853    0.0784196 
C    -0.2730655    2.0552205    1.2523420 
H     0.0201893    2.9137487    0.6190063 
C    -0.2379308    2.5074066    2.7243548 
H    -0.7957362    3.4519065    2.8124748 
H    -0.7364651    1.7690683    3.3687193 
H     0.7887532    2.6769749    3.0909559 
C     3.9091728    5.3896489    1.2625466 
F     4.6836126    6.0675377    0.3808968 
F     2.6734803    5.9467793    1.2338590 
F     4.4222994    5.6027022    2.4940743 
C     6.2293195    1.1868485   -0.2797399 
F     6.2862676   -0.0976787    0.1411332 
F     6.1900081    1.1521844   -1.6432555 
F     7.3735727    1.7999327    0.0756752 
C     3.3215763   -3.7791316    1.8391304 
F     4.2417342   -4.2784506    2.6865373 
F     2.4013681   -4.7575178    1.6206548 
F     3.9319238   -3.5364666    0.6510989 
C     1.4292647   -1.2074250    5.7216530 
F     0.5971956   -0.1760853    6.0033040 
F     0.8296650   -2.3432288    6.1642026 
F     2.5543181   -1.0416142    6.4474765 
C     1.0706464   -5.9072754   -1.6034883 
C     1.8195027   -4.7233081   -1.5595984 
C     1.1942297   -3.5168275   -1.2206585 
C    -0.1801975   -3.4709565   -0.9113364 
C    -0.9245990   -4.6681600   -0.9631263 
C    -0.3006892   -5.8751313   -1.3065728 
H     1.5528564   -6.8528607   -1.8713182 
H     2.8904801   -4.7353840   -1.7821516 
H     1.7774590   -2.5893350   -1.2205465 
H    -1.9974160   -4.6634921   -0.7553901 
H    -0.8925313   -6.7954346   -1.3461159 
C    -5.2266678   -2.0963130   -2.3405750 
C    -4.9164684   -2.8225086   -1.1788351 
C    -3.6319578   -2.7472885   -0.6240271 
C    -2.6443229   -1.9472802   -1.2380686 
C    -2.9694425   -1.2025771   -2.3837914 
C    -4.2532585   -1.2827888   -2.9384487 
H    -6.2316620   -2.1571652   -2.7709728 
H    -5.6798648   -3.4427860   -0.6977086 
H    -3.4105171   -3.2818082    0.3062588 
H    -2.2221514   -0.5392957   -2.8252795 
H    -4.4914840   -0.7024328   -3.8353269 
