124
Energy =
C     0.0625320   -2.4124315   -1.8235430 
C     0.6898194   -1.3747550   -2.5574865 
C     1.9287441   -0.8201512   -2.1464654 
H     0.1698159   -0.9210723   -3.4105154 
Pd    0.3053185   -0.5192852   -0.5613136 
P     1.2330328    1.3549217    0.5433276 
P    -1.4397288   -0.7862745    0.9795876 
H     0.7134011   -3.0008562   -1.1605668 
H     2.5681123   -1.4425425   -1.5027634 
C    -3.4692382   -4.5672865   -2.9976727 
C    -3.0933248   -3.4152792   -3.7070176 
C    -1.9688002   -2.6814001   -3.3186170 
C    -1.1816290   -3.0914014   -2.2152324 
C    -1.5825277   -4.2464597   -1.5043630 
C    -2.7123414   -4.9753119   -1.8904553 
H    -4.3569654   -5.1328589   -3.2965041 
H    -3.6828697   -3.0877465   -4.5693228 
H    -1.6865876   -1.7980280   -3.9004004 
H    -0.9940357   -4.5779301   -0.6418481 
H    -3.0056316   -5.8636127   -1.3227405 
C     4.0738379    2.0039159   -4.5731885 
C     4.7588456    1.0329081   -3.8286096 
C     4.0512982    0.1556880   -2.9980689 
C     2.6405475    0.2043536   -2.9292624 
C     1.9649650    1.1919429   -3.6817554 
C     2.6744273    2.0873013   -4.4866774 
H     4.6271602    2.6978568   -5.2141913 
H     5.8496504    0.9626261   -3.8898496 
H     4.5913517   -0.5993119   -2.4155200 
H     0.8741523    1.2614765   -3.6328977 
H     2.1343657    2.8533900   -5.0522452 
Fe   -2.5954368    2.0877869   -0.4573419 
C    -2.1942213    0.8605641    1.1230812 
C    -1.4500967    2.1099195    1.2357494 
C    -2.4240549    3.1723345    1.2567750 
C    -3.7354857    2.6081246    1.1524483 
C    -3.6022504    1.1858974    1.0689191 
C    -2.3571588    1.1077076   -2.2515281 
C    -3.6852055    1.6380053   -2.1313557 
C    -3.5780343    3.0583115   -1.9547053 
C    -2.1847509    3.4038431   -1.9628948 
C    -1.4299945    2.1951412   -2.1436779 
C     0.0007338    2.3446050    1.5979516 
H    -2.1850080    4.2354299    1.3322396 
H    -4.6735632    3.1645400    1.1107667 
H    -4.4153699    0.4659410    0.9696783 
H    -2.0889249    0.0586823   -2.3882613 
H    -4.6154534    1.0672729   -2.1503151 
H    -4.4098556    3.7515698   -1.8178052 
H    -1.7779250    4.4096256   -1.8466362 
H    -0.3445531    2.1130554   -2.1907835 
H     0.2176516    3.3999844    1.3612053 
C     0.2186424    2.1452257    3.1177916 
H    -0.6421420    2.5711015    3.6614928 
H     0.3051510    1.0829364    3.3860997 
H     1.1287034    2.6572908    3.4611332 
C     4.4794934   -0.3515224    3.4496315 
C     3.6287537   -1.1723789    2.6894033 
C     2.6989655   -0.5990741    1.8186376 
C     2.5716463    0.7976805    1.6768397 
C     3.4343509    1.6494746    2.4253428 
C     4.3625100    1.0432691    3.2914854 
H     3.6780187   -2.2621122    2.7838472 
H     2.0367945   -1.2483224    1.2339180 
H     5.0225398    1.6950886    3.8777168 
C     3.2511060    4.6345559   -2.0334393 
C     4.0272009    3.5643466   -1.5453550 
C     3.3884451    2.5522566   -0.8110940 
C     2.0155388    2.6435599   -0.5050054 
C     1.2702513    3.7358450   -0.9845669 
C     1.8739804    4.7336281   -1.7726596 
H     3.7398737    5.4206662   -2.6214895 
H     3.9769222    1.7111688   -0.4300850 
H     0.2082887    3.8229001   -0.7348592 
C     5.4980401   -0.9351434    4.4012320 
H     5.3571512   -2.0208426    4.5274627 
H     6.5249593   -0.7666764    4.0272966 
H     5.4334167   -0.4578956    5.3949964 
C     3.4380551    3.1630318    2.3373723 
H     3.5705892    3.6069842    3.3388051 
H     4.2785084    3.5081489    1.7079457 
H     2.5228686    3.5765772    1.8893382 
C     5.5244673    3.5430040   -1.7535821 
H     6.0174405    4.2514503   -1.0610665 
H     5.9438384    2.5414385   -1.5674773 
H     5.7939015    3.8465487   -2.7791925 
C     1.0463111    5.8701182   -2.3313875 
H     1.6754011    6.7266564   -2.6237111 
H     0.4917247    5.5411223   -3.2308962 
H     0.3011346    6.2246054   -1.5979037 
C    -0.2376358   -1.8533359    5.3723509 
C    -1.1692507   -0.8639449    5.1089410 
C    -1.5376489   -0.5695881    3.7717694 
C    -0.9793842   -1.2652209    2.7021603 
H     0.0643707   -2.0709551    6.4025349 
H    -1.6190528   -0.2937218    5.9278307 
H    -2.2550198    0.2350870    3.5802699 
C    -0.0652598   -2.3467988    2.9527330 
C     0.3267715   -2.6229840    4.3135942 
C     1.2490360   -3.6815738    4.5686494 
C     1.7438054   -4.4630810    3.5377341 
C     1.3268792   -4.2197334    2.2018204 
C     0.4447211   -3.1886426    1.9217609 
H     1.5489477   -3.8764682    5.6040628 
H     2.4435211   -5.2778502    3.7500532 
H     1.7004959   -4.8543458    1.3910591 
H     0.1207151   -3.0099744    0.8922986 
C    -3.6618720   -1.6640120   -0.4804233 
C    -2.8416346   -1.9175547    0.6159061 
C    -3.1052550   -3.0558157    1.4377955 
C    -4.1766226   -3.8866339    1.1587519 
H    -3.4685043   -0.7957543   -1.1102041 
H    -2.4689842   -3.2692646    2.3004482 
H    -4.3706125   -4.7551962    1.7976424 
C    -5.0445176   -3.6332959    0.0576987 
C    -4.7830909   -2.4858355   -0.7738165 
C    -5.6474830   -2.2169382   -1.8764273 
C    -6.7210185   -3.0472035   -2.1504826 
C    -6.9727413   -4.1863177   -1.3364157 
C    -6.1532739   -4.4728127   -0.2561482 
H    -5.4394031   -1.3500133   -2.5129143 
H    -7.3789068   -2.8334563   -2.9992471 
H    -7.8230707   -4.8366985   -1.5663793 
H    -6.3506041   -5.3475046    0.3732445 
