124
Energy =
C     2.1902113    1.7441758    2.0113244 
C     2.1788961    0.5290772    2.7565232 
C     2.7137256   -0.6625953    2.2129993 
H     1.6205640    0.4862962    3.6997963 
Pd    1.0223580    0.1648658    0.9213964 
P     0.0412950   -1.8322238    0.1911037 
P    -0.0419795    1.6121921   -0.6038938 
H     3.0119105    1.8798928    1.2925964 
H     3.4280797   -0.5546349    1.3825998 
C     0.2785347    5.4111727    3.2341018 
C    -0.1562188    4.1847301    3.7651935 
C     0.4589640    2.9885888    3.3815243 
C     1.5416691    2.9889337    2.4696398 
C     1.9838805    4.2341435    1.9648549 
C     1.3537204    5.4301211    2.3336281 
H    -0.2122558    6.3442479    3.5285082 
H    -0.9878946    4.1617814    4.4771040 
H     0.0756897    2.0406565    3.7742677 
H     2.8421359    4.2631898    1.2835767 
H     1.7128421    6.3807518    1.9257505 
C     2.8042301   -4.5645490    4.0272236 
C     3.3983962   -4.3367423    2.7760527 
C     3.3753890   -3.0561673    2.2115722 
C     2.7443813   -1.9768650    2.8745847 
C     2.1597793   -2.2208199    4.1397780 
C     2.1935122   -3.4986671    4.7085193 
H     2.8253034   -5.5635132    4.4741459 
H     3.8902426   -5.1575290    2.2437415 
H     3.8533253   -2.8798022    1.2409649 
H     1.6727438   -1.4074946    4.6866494 
H     1.7383069   -3.6658454    5.6900976 
Fe   -2.4300552    0.4656508   -3.1817355 
C    -0.7327444    0.7086402   -2.0371956 
C    -1.2187037   -0.6688104   -1.9899025 
C    -1.2405793   -1.1719609   -3.3386654 
C    -0.7913524   -0.1377726   -4.2217345 
C    -0.4974012    1.0202866   -3.4343103 
C    -3.6515791    2.0812069   -3.4925566 
C    -3.6038484    1.2464877   -4.6567465 
C    -4.0664772   -0.0607653   -4.2860381 
C    -4.4077997   -0.0318231   -2.8933510 
C    -4.1499383    1.2874668   -2.4019313 
C    -1.5563824   -1.4521497   -0.7464984 
H    -1.5899681   -2.1581216   -3.6477244 
H    -0.7344347   -0.2027288   -5.3098595 
H    -0.1531320    1.9769307   -3.8250125 
H    -3.3618506    3.1323723   -3.4507363 
H    -3.2514055    1.5444886   -5.6459547 
H    -4.1265391   -0.9298941   -4.9438692 
H    -4.8055334   -0.8646744   -2.3117887 
H    -4.3195811    1.6284964   -1.3805943 
H    -2.0506107   -0.7616675   -0.0401376 
C    -2.5078436   -2.6329252   -1.0044404 
H    -3.3728700   -2.2667616   -1.5811188 
H    -2.0367259   -3.4423574   -1.5799547 
H    -2.8818463   -3.0564025   -0.0600731 
H     1.6973922    3.1293140   -0.2831372 
C     2.2942429    4.7563700   -2.4080730 
C     1.0131477    3.9426415   -2.1337318 
C     1.3319547    2.7210342   -1.2434793 
C     2.4640764    1.8545836   -1.8435403 
C     3.7237192    2.6910806   -2.1251405 
C     3.4057325    3.8947727   -3.0251880 
H     2.6543270    5.1882957   -1.4530388 
H     2.0507084    5.6094431   -3.0662503 
H     0.5692119    3.6254887   -3.0941121 
H     0.2754004    4.5932397   -1.6391560 
H     2.7002562    1.0278804   -1.1477043 
H     2.1144502    1.3818527   -2.7805947 
H     4.1413605    3.0531226   -1.1639388 
H     4.4984458    2.0515657   -2.5852343 
H     3.0794464    3.5312275   -4.0198342 
H     4.3133260    4.5013936   -3.1927145 
H    -0.6604470    3.2653026    0.9626005 
C    -3.2022822    2.6037965    1.9737883 
C    -2.2240091    1.7766733    1.1233219 
C    -1.2994295    2.6785850    0.2730693 
C    -2.1262100    3.6424527   -0.5980249 
C    -3.1091245    4.4630351    0.2598248 
C    -4.0266750    3.5669276    1.1058323 
H    -2.6230454    3.1859268    2.7147969 
H    -3.8639709    1.9262846    2.5434620 
H    -2.7984051    1.1168844    0.4424442 
H    -1.6092383    1.1189595    1.7665188 
H    -1.4726025    4.3275874   -1.1581617 
H    -2.6697967    3.0468449   -1.3463085 
H    -2.5289465    5.1264033    0.9309777 
H    -3.7079258    5.1200556   -0.3964452 
H    -4.6922152    2.9838173    0.4384730 
H    -4.6875414    4.1845261    1.7397075 
H     1.8160868   -3.3605518   -0.0621208 
C     3.2682201   -2.7440920   -2.3589317 
C     2.1721617   -1.9329346   -1.6470152 
C     1.2186569   -2.8518124   -0.8469093 
C     0.6118754   -3.9331244   -1.7687395 
C     1.7237259   -4.7474927   -2.4573414 
C     2.6707985   -3.8390435   -3.2566616 
H     3.9212664   -3.2138346   -1.5959865 
H     3.9097151   -2.0637560   -2.9477280 
H     1.5854497   -1.3571567   -2.3884375 
H     2.6282649   -1.1925926   -0.9643950 
H    -0.0564418   -4.6055250   -1.2069454 
H     0.0024609   -3.4370468   -2.5447098 
H     2.3002104   -5.2983648   -1.6878072 
H     1.2683292   -5.5089377   -3.1157062 
H     2.1070195   -3.3642090   -4.0839795 
H     3.4752230   -4.4354273   -3.7226037 
H     0.5299805   -2.8156201    2.2671379 
C    -0.9667239   -5.0483327    2.8385888 
C    -0.7230946   -4.3610628    1.4801796 
C    -0.4098365   -2.8622765    1.6849036 
C    -1.4925425   -2.1406784    2.5209119 
C    -1.7283776   -2.8594980    3.8613065 
C    -2.0675908   -4.3433811    3.6468208 
H    -0.0232356   -5.0369819    3.4170671 
H    -1.2270657   -6.1088824    2.6710918 
H    -1.6135490   -4.4912674    0.8402976 
H     0.1207883   -4.8549545    0.9682859 
H    -1.1854522   -1.0910271    2.6939086 
H    -2.4459221   -2.1050901    1.9587804 
H    -0.8118621   -2.7804218    4.4769749 
H    -2.5352393   -2.3508833    4.4191921 
H    -3.0316026   -4.4245439    3.1059723 
H    -2.2095659   -4.8471450    4.6195940 
