94
Energy =
C    -2.5044878    1.5644624    1.2994020 
C    -1.5617596    2.6262640    1.1577619 
C    -1.3058350    3.1074384   -0.1688512 
H    -0.9523137    2.9565782    2.0071741 
Pd   -0.6650240    1.0435449    0.0535327 
P     2.3630591    0.8530751    1.5886842 
P    -0.9760457   -0.4418963   -1.7377149 
H    -3.2780878    1.4698263    0.5259907 
H    -2.1158171    2.9984369   -0.9012002 
C    -3.0944502   -0.9323342    4.7402284 
C    -1.9698677   -0.0913264    4.6781920 
C    -1.7667581    0.7343235    3.5704659 
C    -2.6887988    0.7417080    2.4928178 
C    -3.8111257   -0.1209089    2.5655175 
C    -4.0143699   -0.9430248    3.6783177 
H    -3.2526087   -1.5756799    5.6119504 
H    -1.2442572   -0.0858922    5.4980001 
H    -0.8695926    1.3600054    3.5272834 
H    -4.5247281   -0.1350334    1.7347358 
H    -4.8963585   -1.5907825    3.7241646 
C     1.9906654    5.4703541   -1.5705637 
C     0.9293140    5.1334065   -2.4269060 
C    -0.1495767    4.3871147   -1.9433579 
C    -0.1886603    3.9589580   -0.5930176 
C     0.8877619    4.3082112    0.2599408 
C     1.9626132    5.0566409   -0.2266730 
H     2.8354044    6.0566534   -1.9467298 
H     0.9441189    5.4567931   -3.4729322 
H    -0.9719225    4.1123070   -2.6141480 
H     0.8969777    3.9703375    1.3005044 
H     2.7877863    5.3181483    0.4437759 
Fe    1.2607429    0.0601302   -0.9260330 
C     3.0673104    0.3395129   -0.0593167 
C     3.1616798    1.0489397   -1.2588845 
H     3.0770069    2.1392256   -1.3329390 
C     3.7487823    0.1809678   -2.3550150 
H     4.7536754    0.4959365   -2.6876896 
C     3.6311892   -1.2932021   -1.8107978 
H     4.5717770   -1.8628419   -1.8482243 
C     3.1827823   -1.1907093   -0.3051585 
C     0.5522537   -0.8042905   -2.5800283 
C     1.2588372   -2.1121264   -2.8904750 
H     0.8878843   -2.5263412   -3.8496235 
C     2.7171126   -1.6462460   -3.0498018 
H     3.2779454   -2.2904729   -3.7439631 
C     2.6937255   -0.1361355   -3.4546873 
H     2.9174664    0.1274219   -4.5022194 
C     1.3294258    0.3406376   -2.9576541 
H     3.9426162   -1.6630890    0.3447556 
H     0.9041836    1.3025355   -3.2725940 
C     1.2833037   -0.5668548    1.1428031 
C     1.7960343   -1.5662009    0.2400541 
C     1.0221650   -2.7526083    0.5050745 
C     0.1255974   -2.4328923    1.5017820 
H     1.1180843   -2.8819786   -2.1174067 
H     1.1002146   -3.7300766    0.0296732 
O     0.2717852   -1.1369621    1.9179631 
C    -0.9443989   -3.2022094    2.1925284 
H    -0.6540264   -3.4185280    3.2367553 
H    -1.8676330   -2.6005254    2.2272792 
H    -1.1399417   -4.1493118    1.6685301 
C     3.5273232    0.1560939    2.8033479 
C     4.1363911    0.7350871    3.9000503 
C     4.9197097   -0.2830843    4.5273301 
C     4.7425287   -1.4318816    3.7865994 
H     4.0295823    1.7738916    4.2151574 
H     5.5378907   -0.1867320    5.4201560 
O     3.8987883   -1.1770742    2.7385598 
C     5.2657848   -2.8221632    3.9026699 
H     4.4386069   -3.5505286    3.9820881 
H     5.8680045   -3.0957098    3.0169128 
H     5.9009010   -2.9114447    4.7968996 
C    -1.8451386   -1.9808071   -1.4036577 
C    -1.8723338   -3.2245609   -2.0004322 
C    -2.8645539   -3.9841495   -1.3064685 
C    -3.3979315   -3.1599217   -0.3388160 
H    -1.2670974   -3.5492538   -2.8458518 
H    -3.1640593   -5.0130668   -1.5069003 
C    -1.9904205    0.5246005   -2.8825094 
C    -1.9308199    0.7399052   -4.2435081 
C    -2.9895250    1.6504496   -4.5565498 
C    -3.6360143    1.9374858   -3.3740261 
H    -1.2118426    0.2934074   -4.9302404 
H    -3.2499225    2.0439705   -5.5392913 
O    -2.7752755   -1.9400673   -0.3849706 
O    -3.0281823    1.2596506   -2.3464848 
C    -4.4766474   -3.3351219    0.6727427 
H    -4.0950837   -3.1867674    1.6979493 
H    -5.2897853   -2.6046997    0.5117458 
H    -4.8970791   -4.3489811    0.5948508 
C    -4.8023155    2.7907062   -3.0128820 
H    -5.6076054    2.1877481   -2.5559211 
H    -4.5160490    3.5726830   -2.2857829 
H    -5.2006651    3.2809222   -3.9137999 
