142
Energy =
C    -0.3292413    3.3007973    1.0792391 
C    -0.6687089    2.6592438    2.2920773 
C     0.3109492    1.9518314    3.0523542 
H    -1.7235707    2.5792651    2.5855650 
Pd    0.1082931    1.0103051    1.0517417 
P     1.0153199   -1.0743754    1.5941094 
P    -0.1813555    0.6157929   -1.2667992 
H     0.7373543    3.4977152    0.8993359 
H     1.3505568    2.3083790    2.9878954 
C    -2.9854161    5.4684547   -1.5138104 
C    -1.6754947    5.1695526   -1.9186639 
C    -0.8125705    4.4856297   -1.0569781 
C    -1.2517563    4.0584580    0.2183850 
C    -2.5672698    4.3868338    0.6222608 
C    -3.4207200    5.0897365   -0.2336397 
H    -3.6604363    6.0084730   -2.1855550 
H    -1.3214502    5.4748365   -2.9084853 
H     0.2081039    4.2599050   -1.3783492 
H    -2.9234146    4.1068555    1.6191131 
H    -4.4319776    5.3445790    0.0987858 
C    -0.6197261   -0.2144952    6.6557784 
C    -1.4861617   -0.2880687    5.5517778 
C    -1.1933269    0.4189199    4.3803357 
C    -0.0226455    1.2061213    4.2854807 
C     0.8400237    1.2711663    5.3997682 
C     0.5381689    0.5724727    6.5766389 
H    -0.8385357   -0.7788016    7.5673297 
H    -2.3910146   -0.9032871    5.6059724 
H    -1.8596011    0.3445933    3.5129033 
H     1.7556883    1.8686247    5.3395547 
H     1.2208100    0.6261053    7.4301448 
Fe   -3.0934438   -3.2369884    0.4302471 
C    -1.5735554   -2.0112762    1.0530226 
C    -1.6855537   -1.9908981   -0.3963955 
C    -3.0302264   -1.5790499   -0.7176114 
H    -3.4263863   -1.4706464   -1.7277919 
C    -3.7341504   -1.3178572    0.5016009 
H    -4.7768966   -1.0063932    0.5850956 
C    -2.8428520   -1.5860269    1.5905089 
H    -3.0875696   -1.5264516    2.6530978 
C    -2.6668846   -5.2516511    0.3838050 
H    -1.6896449   -5.7337416    0.3291448 
C    -3.4880470   -4.8785244   -0.7334199 
H    -3.2362487   -4.9962491   -1.7890666 
C    -4.7007612   -4.3110478   -0.2206619 
H    -5.5218427   -3.9081356   -0.8165437 
C    -4.6287348   -4.3293867    1.2128337 
H    -5.3874662   -3.9465340    1.8980130 
C    -3.3711901   -4.9091036    1.5866876 
H    -3.0230283   -5.0673452    2.6091284 
C    -0.5868376   -2.1967370   -1.3828900 
C     0.1732194   -1.0959227   -1.8775544 
C     1.2130818   -1.3257219   -2.8000184 
H     1.8186856   -0.4856086   -3.1538502 
C     1.4982952   -2.6221795   -3.2510112 
H     2.3183211   -2.7847677   -3.9571341 
C     0.7466964   -3.7063543   -2.7806255 
H     0.9724194   -4.7221184   -3.1186634 
C    -0.2819428   -3.4868122   -1.8553466 
H    -0.8760753   -4.3219640   -1.4770208 
C     0.9753107    1.7240647   -2.1718964 
C     1.9961187    2.3614034   -1.4381864 
H     2.0763172    2.1755029   -0.3592954 
C     2.8889397    3.2607474   -2.0359189 
C     2.7595992    3.4944850   -3.4240678 
C     1.7282980    2.8992047   -4.1884703 
C     0.8427096    2.0202809   -3.5414797 
H     0.0285634    1.5823140   -4.1254397 
C    -1.8598333    0.9293170   -1.9354340 
C    -2.8485207    1.4718250   -1.0976801 
H    -2.5989010    1.7233799   -0.0628257 
C    -4.1683356    1.6305147   -1.5442387 
C    -4.4783548    1.2436579   -2.8681672 
C    -3.5015170    0.7087230   -3.7419040 
C    -2.1977412    0.5410538   -3.2463528 
H    -1.4495724    0.0675841   -3.8921467 
C     2.3141774   -1.6572489    0.4028564 
C     2.5534181   -2.9998535    0.0585639 
H     1.9309009   -3.8035681    0.4422014 
C     3.5940673   -3.3292037   -0.8187024 
C     4.4370699   -2.3405821   -1.3434402 
H     5.2512229   -2.6043456   -2.0238482 
C     4.2055048   -1.0048214   -0.9984068 
C     3.1486178   -0.6640643   -0.1425100 
H     2.9703865    0.3894297    0.0849475 
C     2.0065571   -1.0967427    3.1594334 
C     3.1013780   -0.2170588    3.2370337 
H     3.3625414    0.4271713    2.3919153 
C     3.8682273   -0.1347775    4.4055957 
C     3.5699261   -0.9392644    5.5125849 
H     4.1662963   -0.8675483    6.4257964 
C     2.4738700   -1.8085991    5.4402146 
C     1.6903559   -1.8846739    4.2798840 
H     0.8259898   -2.5505852    4.2884923 
C    -0.3584075   -2.3248952    1.9032453 
H    -0.6328381   -2.0101432    2.9279799 
C     0.0349608   -3.8137772    1.9455111 
H    -0.7483805   -4.3657389    2.4867084 
H     0.0873810   -4.2298481    0.9291065 
H     0.9959836   -3.9851055    2.4593982 
C     4.9437253    0.9252295    4.4915759 
F     5.8542731    0.6565889    5.4456902 
F     5.5931298    1.0745991    3.3138311 
F     4.3856926    2.1349521    4.7877757 
C     2.1383480   -2.6759306    6.6360000 
F     0.8706839   -3.1525464    6.5703008 
F     2.9673073   -3.7398217    6.7210116 
F     2.2545249   -1.9814281    7.7937015 
C     3.8108895   -4.7693546   -1.2336540 
F     2.8018684   -5.5721429   -0.8175025 
F     4.9636303   -5.2644535   -0.7364313 
F     3.8798185   -4.8738854   -2.5862241 
C     5.0457746    0.0880191   -1.6182857 
F     4.4757518    0.5552856   -2.7664632 
F     5.1757843    1.1491231   -0.7844687 
F     6.2815815   -0.3428712   -1.9395604 
C     3.9514702    3.9850092   -1.2470102 
H     3.8701041    5.0749886   -1.3981804 
H     3.8679896    3.7627794   -0.1707905 
H     4.9624087    3.6886313   -1.5750318 
C     1.5748988    3.2264227   -5.6551742 
H     2.1853246    2.5495799   -6.2821529 
H     0.5261270    3.1170466   -5.9768844 
H     1.9087632    4.2570595   -5.8583104 
C    -5.2578646    2.1689082   -0.6491220 
H    -6.0669518    1.4282071   -0.5160864 
H    -4.8605113    2.4289874    0.3441718 
H    -5.7203410    3.0672929   -1.0923992 
C    -3.8546677    0.3338583   -5.1629101 
H    -4.2153005   -0.7098605   -5.2300601 
H    -4.6545972    0.9879182   -5.5469372 
H    -2.9760330    0.4192568   -5.8231396 
O     3.6280702    4.3859592   -4.0065204 
O    -5.7667152    1.4503090   -3.3106813 
C     4.7463367    3.7996904   -4.6953001 
H     5.4241640    4.6288103   -4.9460875 
H     5.2677202    3.0685267   -4.0499948 
H     4.4267877    3.2926673   -5.6250230 
C    -6.6232777    0.3008418   -3.3221985 
H    -6.6966885   -0.1509720   -2.3137966 
H    -7.6155920    0.6566782   -3.6367496 
H    -6.2689499   -0.4682995   -4.0338312 
