132
Energy =
C     0.6599158   -0.4754669   -3.5105900 
C     0.5750699    0.9287051   -3.2553048 
C     1.4732514    1.5625396   -2.3658516 
H    -0.2907662    1.4861315   -3.6354277 
Pd    0.3122848   -0.1222262   -1.3409040 
P     0.0942336    0.8493929    0.7671163 
P    -0.4221655   -2.2590629   -0.7160394 
H     1.6614352   -0.9299922   -3.4756261 
H     2.4161030    1.0366035   -2.1497151 
C    -2.2358944   -2.7379299   -5.7680543 
C    -2.6400771   -1.5941232   -5.0581192 
C    -1.7064145   -0.8443154   -4.3352673 
C    -0.3412051   -1.2150477   -4.3086221 
C     0.0517763   -2.3588719   -5.0408115 
C    -0.8849893   -3.1143082   -5.7592112 
H    -2.9696535   -3.3272715   -6.3271569 
H    -3.6923812   -1.2909546   -5.0615969 
H    -2.0449352    0.0235947   -3.7586346 
H     1.1075874   -2.6527787   -5.0502453 
H    -0.5563162   -3.9966183   -6.3184035 
C     1.5114830    5.6801079   -1.1243747 
C     2.5040183    4.7873163   -0.6939058 
C     2.4823010    3.4544513   -1.1198170 
C     1.4631023    2.9814397   -1.9786198 
C     0.4803688    3.8985407   -2.4185416 
C     0.5062086    5.2303472   -1.9960096 
H     1.5275180    6.7242061   -0.7948077 
H     3.2985030    5.1301407   -0.0231043 
H     3.2561505    2.7601856   -0.7758210 
H    -0.3129812    3.5719554   -3.0980694 
H    -0.2623191    5.9252512   -2.3500621 
Fe   -0.5938502   -0.8910802    3.7980998 
C    -0.8707235   -0.1841009    1.9277352 
C    -0.9064800   -1.6416213    1.9409551 
C    -1.9693568   -2.0364070    2.8310577 
C    -2.5874062   -0.8574296    3.3602247 
C    -1.9209124    0.2829048    2.8106866 
C     0.2965733   -2.1353673    5.1426026 
C     1.2871455   -1.4115720    4.3948495 
C     1.0691278   -0.0085716    4.6115434 
C    -0.0586382    0.1353928    5.4851971 
C    -0.5377687   -1.1780136    5.8143023 
C    -0.8601828    2.4076844    0.7335578 
C    -1.6362439    2.6685540   -0.4089942 
C    -2.4549511    3.8051953   -0.4986419 
C    -2.4668096    4.6990513    0.5942512 
C    -1.7291414    4.4470948    1.7764494 
C    -0.9369800    3.2899506    1.8321677 
C     1.7581265    1.1716144    1.4718059 
C     2.2000409    2.4271353    1.9255980 
C     3.4952033    2.5977821    2.4475765 
C     4.3550862    1.4777099    2.4994573 
C     3.9456408    0.2047344    2.0340810 
C     2.6509608    0.0817371    1.5095894 
C    -0.0514828   -2.5696525    1.1144644 
H    -2.2363314   -3.0613866    3.0917959 
H    -3.4029233   -0.8325332    4.0850058 
H    -2.1672347    1.3251803    3.0112269 
H     0.1870835   -3.2206614    5.1883365 
H     2.0704491   -1.8477258    3.7722193 
H     1.6496063    0.8025180    4.1698611 
H    -0.4904220    1.0782613    5.8257612 
H    -1.3963855   -1.4084618    6.4475995 
H    -1.6016531    1.9637738   -1.2489954 
H    -0.3934082    3.0702078    2.7572989 
H     1.5455563    3.2993291    1.8636023 
H     2.3326531   -0.8963674    1.1308679 
H     0.9940367   -2.2211221    1.1820032 
H     0.3989118   -3.1123466   -2.7310865 
H    -2.2334866   -2.6626885   -2.1690058 
C    -4.4526766   -1.2292875   -1.3422181 
C    -2.9981515   -1.1266810   -0.8545881 
C    -2.2433913   -2.4606316   -1.0770838 
C    -2.9797874   -3.6154976   -0.3618386 
C    -4.4339483   -3.7177278   -0.8614936 
C    -5.1912983   -2.3946543   -0.6639766 
H    -4.4540433   -1.3828517   -2.4394996 
H    -4.9753656   -0.2743914   -1.1516119 
H    -2.9817862   -0.8711980    0.2213699 
H    -2.4689199   -0.3101831   -1.3796366 
H    -2.4597246   -4.5757123   -0.5113999 
H    -2.9864039   -3.4115691    0.7242238 
H    -4.4284444   -3.9841444   -1.9369986 
H    -4.9481086   -4.5410017   -0.3336763 
H    -5.2806629   -2.1855597    0.4203811 
H    -6.2202510   -2.4789523   -1.0568909 
C     0.8234838   -5.7983857   -2.7821985 
C    -0.0226848   -4.9772545   -1.7881786 
C     0.5118653   -3.5308312   -1.7137833 
C     2.0166358   -3.4800178   -1.3605375 
C     2.8410964   -4.3198990   -2.3524453 
C     2.3188329   -5.7642594   -2.4269456 
H     0.6783201   -5.3856602   -3.8001300 
H     0.4552855   -6.8395285   -2.8078937 
H     0.0046734   -5.4587142   -0.7945839 
H    -1.0751588   -4.9735351   -2.1198489 
H     2.3655614   -2.4284688   -1.3571796 
H     2.1769754   -3.8712725   -0.3369918 
H     2.7803668   -3.8547274   -3.3564283 
H     3.9067343   -4.3052017   -2.0609719 
H     2.4736812   -6.2577481   -1.4467888 
H     2.9010199   -6.3432856   -3.1657167 
C    -0.0873174   -4.0242548    1.6113051 
H     0.1479453   -4.0301650    2.6899099 
H    -1.0720748   -4.4949782    1.4732547 
H     0.6637267   -4.6423866    1.0966394 
C    -3.2892233    4.0785706   -1.7267622 
H    -2.7539523    4.7419422   -2.4329291 
H    -3.5217941    3.1438417   -2.2635372 
H    -4.2307637    4.5822410   -1.4544411 
C    -1.8190330    5.4030988    2.9423607 
H    -1.4772329    4.9261347    3.8754298 
H    -1.1885602    6.2963492    2.7736188 
H    -2.8538340    5.7595380    3.0741844 
O    -3.2797628    5.8103807    0.5506776 
C    -2.6960094    6.9855307   -0.0271801 
H    -3.4443285    7.7856251    0.0729847 
H    -1.7695846    7.2764585    0.5037046 
H    -2.4622475    6.8345074   -1.0983571 
C     3.9679389    3.9407199    2.9523974 
H     4.5306997    3.8255569    3.8935405 
H     4.6506239    4.4226819    2.2273388 
H     3.1197798    4.6244793    3.1171866 
C     4.8799130   -0.9791863    2.1213296 
H     4.3209170   -1.9293638    2.0953114 
H     5.5950037   -0.9925668    1.2775011 
H     5.4722957   -0.9345400    3.0500042 
O     5.5960065    1.6166428    3.0793248 
C     6.6791489    1.9269503    2.1915222 
H     7.5779389    2.0156733    2.8195088 
H     6.8314088    1.1257165    1.4436156 
H     6.5040051    2.8829917    1.6626077 
