124
Energy =
C    -0.0525038    0.6063740   -2.9764915 
C     0.7944897   -0.5402906   -2.9366332 
C     0.2823384   -1.8166066   -2.6117715 
H     1.8791333   -0.4081463   -3.0364095 
Pd   -0.0319445   -0.2851354   -0.8982490 
P     0.3535548   -1.5260588    1.0193500 
P    -0.6613273    1.6481643    0.2229482 
H    -1.1078182    0.4279358   -3.2239612 
H    -0.8078981   -1.9506772   -2.6960253 
C     1.2890598    4.5970364   -3.8457912 
C     2.2094254    3.6384814   -3.3902744 
C     1.7846718    2.3446165   -3.0764434 
C     0.4265923    1.9753857   -3.2294885 
C    -0.4935741    2.9593345   -3.6580131 
C    -0.0663166    4.2567031   -3.9652299 
H     1.6268129    5.6081540   -4.0944459 
H     3.2643798    3.9042492   -3.2715919 
H     2.5158100    1.6197506   -2.7032085 
H    -1.5514894    2.6951593   -3.7627329 
H    -0.7923220    5.0007084   -4.3093559 
C     2.4246810   -5.5427309   -2.4243176 
C     3.1423159   -4.3360328   -2.4849886 
C     2.4642249   -3.1160518   -2.5700970 
C     1.0489413   -3.0706629   -2.5658504 
C     0.3431992   -4.2953096   -2.5320077 
C     1.0229440   -5.5172601   -2.4684296 
H     2.9545070   -6.4969728   -2.3468168 
H     4.2364429   -4.3421785   -2.4679684 
H     3.0482028   -2.1934410   -2.6495802 
H    -0.7517300   -4.2830929   -2.5582692 
H     0.4571831   -6.4534340   -2.4401022 
Fe   -2.2942606   -1.3162049    1.2907859 
C    -0.6757441   -1.1312441    2.4351955 
C    -1.4625158    0.1007359    2.4946191 
C    -2.4760764    0.0189609    3.6361767 
C    -2.5464309   -1.4937209    3.9770807 
C    -1.5668730   -2.1169884    3.0101224 
C    -4.0000468   -1.5658844    3.3529617 
C    -3.9254962   -0.0448872    3.0123788 
C    -3.8744847   -0.0288529    1.4893054 
C    -4.2624590   -1.2923569    0.9360928 
C    -3.9648321   -2.2304138    1.9865966 
C     2.1380812   -1.3276762    1.4339451 
C     2.5542958   -0.8986176    2.7049072 
C     3.8865632   -0.5027335    2.9010777 
C     4.8152432   -0.5550742    1.8505545 
C     4.3964949   -1.0040313    0.5899603 
C     3.0656660   -1.3817145    0.3807141 
C     0.0120895   -3.3003781    0.7584829 
C    -1.3080179   -3.5482142    0.3300456 
C    -1.7505106   -4.8617574    0.1375334 
C    -0.8695158   -5.9334468    0.3552365 
C     0.4504980   -5.6783396    0.7516964 
C     0.8960735   -4.3636082    0.9710005 
C    -0.9994875    1.4897435    2.0873160 
H    -2.3216842    0.7250125    4.4710919 
H    -2.4475852   -1.7918263    5.0346609 
H    -1.3360736   -3.1879009    3.0494044 
H    -4.8066547   -1.8999785    4.0288066 
H    -4.6857832    0.6146706    3.4666581 
H    -3.9076852    0.9112679    0.9294913 
H    -4.6800587   -1.5002757   -0.0538763 
H    -4.0699060   -3.3159351    1.8797361 
H     1.8372880   -0.8436612    3.5307269 
H     2.7379609   -1.6978815   -0.6129019 
H    -1.9642355   -2.7046604   -0.0138894 
H     1.9284831   -4.1812904    1.2819053 
H    -1.8592794    2.1664586    2.2370440 
C     0.1544850    1.9790202    2.9877724 
H    -0.1392527    1.8659691    4.0457497 
H     1.0766302    1.3974862    2.8312902 
H     0.3864801    3.0398310    2.8007450 
C     4.2845568    0.1080300    4.2276849 
F     3.9878149    1.4396344    4.2299693 
F     3.6124994   -0.4484069    5.2581800 
F     5.6049623   -0.0099667    4.4677076 
C     5.3332780   -1.0230556   -0.5969603 
F     5.5507472   -2.2803468   -1.0483877 
F     4.7828813   -0.3275030   -1.6409121 
F     6.5252247   -0.4628373   -0.3237776 
C    -3.1576725   -5.1336303   -0.3464995 
F    -3.1909649   -6.1712763   -1.2076759 
F    -3.9939304   -5.4306962    0.6787520 
F    -3.6753022   -4.0501628   -0.9851723 
C     1.4045267   -6.8420888    0.9357315 
F     1.2304112   -7.4388026    2.1351959 
F     1.2090156   -7.7861481   -0.0175492 
F     2.6942521   -6.4417196    0.8589453 
H     5.8458789   -0.2283652    2.0079615 
H    -1.1978481   -6.9594114    0.1673413 
C    -4.6871000    3.3844713   -1.2607553 
C    -3.9704975    4.0956939   -0.2744459 
C    -2.7368289    3.5796315    0.1572266 
C    -2.2198257    2.3885391   -0.3974287 
C    -2.9634907    1.6994183   -1.3691089 
C    -4.2078364    2.1859466   -1.8151774 
H    -5.6567054    3.7735443   -1.5942061 
H    -2.1827801    4.1136044    0.9380452 
H    -2.5868909    0.7447359   -1.7518314 
C    -4.5205496    5.3847346    0.2935445 
H    -5.5734290    5.2657649    0.6033077 
H    -3.9390254    5.7257673    1.1655229 
H    -4.4943673    6.1873777   -0.4663787 
C    -4.9904536    1.4276946   -2.8641506 
H    -4.5205944    1.5381274   -3.8594722 
H    -5.0201613    0.3477644   -2.6350839 
H    -6.0270591    1.7927608   -2.9410124 
C     2.8395712    4.6490534   -0.1124167 
C     1.5536496    5.1045609   -0.4607989 
C     0.4744843    4.2070549   -0.3736553 
C     0.6816272    2.8841727    0.0557137 
C     1.9860772    2.4419831    0.3593426 
C     3.0792323    3.3238622    0.2931913 
H     3.6850807    5.3443828   -0.1777945 
H    -0.5225988    4.5419949   -0.6718102 
H     2.1575972    1.3976602    0.6478899 
C     1.3311241    6.5316358   -0.9075148 
H     1.2105327    7.2001847   -0.0343262 
H     2.1876914    6.9074075   -1.4920789 
H     0.4230848    6.6199715   -1.5265887 
C     4.4704021    2.8439927    0.6435433 
H     5.2134542    3.6517847    0.5481776 
H     4.5026721    2.4686145    1.6817226 
H     4.7802129    2.0152871   -0.0176819 
