112
Energy =
C     1.9843442   -0.4752502   -2.6048600 
C     2.4710840    0.8287701   -2.3133342 
C     3.1691824    1.1004716   -1.1098828 
H     2.1894437    1.6633964   -2.9664340 
Pd    1.0893279    0.3245567   -0.6695616 
P     0.8436123    1.5275327    1.3093534 
P    -0.6976562   -1.1596069   -0.2985551 
H     2.5122183   -1.3178263   -2.1344719 
H     3.6399251    0.2431060   -0.6050681 
C    -0.2664459   -1.6009523   -6.1036061 
C     0.3944475   -2.5682185   -5.3322224 
C     1.1376244   -2.1828772   -4.2092112 
C     1.2248830   -0.8262977   -3.8193891 
C     0.5665622    0.1376632   -4.6193576 
C    -0.1656347   -0.2451544   -5.7474000 
H    -0.8470337   -1.8978027   -6.9828684 
H     0.3401056   -3.6258593   -5.6108288 
H     1.6712753   -2.9424255   -3.6272708 
H     0.6073420    1.1973283   -4.3458618 
H    -0.6696664    0.5175523   -6.3501130 
C     4.9404038    4.8479110    0.0286115 
C     5.2412179    3.6693147    0.7268528 
C     4.6319347    2.4627310    0.3610318 
C     3.7142893    2.4093535   -0.7138300 
C     3.3953970    3.6124796   -1.3856652 
C     4.0083429    4.8146343   -1.0223597 
H     5.4235124    5.7908091    0.3047964 
H     5.9599599    3.6864941    1.5527316 
H     4.8760240    1.5423273    0.9033350 
H     2.6653724    3.6116927   -2.2009200 
H     3.7547757    5.7343952   -1.5588044 
Fe   -2.6312960   -1.3132070    2.7706190 
C    -1.0376851   -1.2900712    1.4932715 
C    -0.9939507   -0.1661117    2.4266979 
C    -0.9580301   -0.7051056    3.7605193 
C    -1.0029144   -2.1323547    3.6784551 
C    -1.0630633   -2.4984113    2.2963503 
C    -4.3233811   -0.1799839    2.5442972 
C    -4.4155432   -1.3763718    1.7542485 
C    -4.2880190   -2.5037149    2.6308025 
C    -4.1228577   -2.0056393    3.9675140 
C    -4.1436066   -0.5698781    3.9140994 
C    -0.8777953    1.2888646    2.0651619 
H    -0.9375902   -0.1241943    4.6830758 
H    -1.0285266   -2.8232229    4.5229061 
H    -1.1231470   -3.5191200    1.9213180 
H    -4.3921166    0.8443490    2.1728797 
H    -4.5653396   -1.4225368    0.6752480 
H    -4.3056162   -3.5538290    2.3338782 
H    -3.9843678   -2.6108795    4.8651980 
H    -4.0309060    0.1036707    4.7657237 
H    -1.5344820    1.5062614    1.2074120 
C    -1.2232667    2.2509603    3.2074005 
H    -2.2614494    2.0625842    3.5326635 
H    -0.5670198    2.1058756    4.0802689 
H    -1.1414126    3.2999685    2.8798111 
H     0.0687113   -2.6473432   -1.9393130 
C    -0.7601450   -5.2412437   -1.5348000 
C    -1.2985585   -3.9411183   -0.9066480 
C    -0.1943840   -2.8603332   -0.8848142 
C     1.0950472   -3.3492923   -0.1848630 
C     1.5989735   -4.6646046   -0.8059123 
C     0.5007113   -5.7404363   -0.8109689 
H    -0.5216237   -5.0524583   -2.6004109 
H    -1.5491059   -6.0142623   -1.5196169 
H    -1.6596338   -4.1487819    0.1167191 
H    -2.1722154   -3.5858629   -1.4802908 
H     1.8732510   -2.5652184   -0.2533655 
H     0.9069164   -3.5017884    0.8931528 
H     1.9277507   -4.4760722   -1.8470066 
H     2.4883670   -5.0191111   -0.2547839 
H     0.2424767   -6.0033511    0.2342939 
H     0.8740033   -6.6654689   -1.2850095 
H    -2.9972056   -1.6005284   -0.8557502 
C    -3.4257303   -0.5755019   -3.4579665 
C    -2.1116423   -0.8729543   -2.7158561 
C    -2.3013338   -0.8061285   -1.1881318 
C    -2.8816234    0.5606771   -0.7789738 
C    -4.1969816    0.8596364   -1.5189973 
C    -4.0121777    0.7829448   -3.0430794 
H    -4.1589355   -1.3768700   -3.2393209 
H    -3.2407817   -0.6042176   -4.5467545 
H    -1.3521946   -0.1241359   -3.0031092 
H    -1.7148806   -1.8521555   -3.0343556 
H    -3.0386057    0.5791831    0.3124385 
H    -2.1368126    1.3457424   -1.0229469 
H    -4.9650548    0.1255754   -1.2049543 
H    -4.5737107    1.8544201   -1.2195349 
H    -3.3239947    1.5894034   -3.3663846 
H    -4.9735949    0.9623818   -3.5562494 
C     3.6993752    0.0165342    4.6476726 
C     3.0185534    1.2287828    4.8388926 
C     2.1700095    1.7286872    3.8414827 
C     2.0034215    1.0203412    2.6306575 
C     2.6846131   -0.2026526    2.4534297 
C     3.5273168   -0.7017771    3.4552359 
H     4.3610987   -0.3690112    5.4301917 
H     3.1464611    1.7891481    5.7708453 
H     1.6429174    2.6718711    4.0111169 
H     2.5376805   -0.7674546    1.5250923 
H     4.0486562   -1.6527058    3.3046509 
C     0.9119704    6.0938431    0.4690881 
C     0.0042191    5.2374192   -0.1747836 
C     0.0223075    3.8651429    0.0997500 
C     0.9427277    3.3334129    1.0326131 
C     1.8666059    4.1937759    1.6539631 
C     1.8444432    5.5675461    1.3729030 
H     0.8986901    7.1676266    0.2558492 
H    -0.7169434    5.6390477   -0.8942202 
H    -0.6785360    3.1985712   -0.4177444 
H     2.6234570    3.7976069    2.3347448 
H     2.5728859    6.2253684    1.8574774 
