86
Energy =
C     1.3750340    1.8295420    2.2511270 
C     1.0369808    2.5284623    1.0831742 
C    -0.3264151    2.7687355    0.7085946 
H     1.8318776    2.8527759    0.3993176 
Pd    0.0077359    0.5956040    0.6253402 
P    -2.0288323    0.1376231   -0.4231381 
P     0.9492948   -1.5845718    0.4797759 
H     0.5633202    1.6328851    2.9684709 
H    -1.0547541    2.8695911    1.5274270 
C     5.2885431    1.2737944    3.9365879 
C     4.1378431    0.9107299    4.6530405 
C     2.8725787    1.0988438    4.0864583 
C     2.7267294    1.6413942    2.7860137 
C     3.8990757    2.0259622    2.0882645 
C     5.1621892    1.8411710    2.6565936 
H     6.2799288    1.1298630    4.3778470 
H     4.2267318    0.4880532    5.6588502 
H     1.9770176    0.8306361    4.6582648 
H     3.8263385    2.4830126    1.0968534 
H     6.0555276    2.1461507    2.1022566 
C    -1.2780915    4.9669687   -2.8779334 
C    -0.2373173    4.0232180   -2.8885313 
C     0.0749252    3.3083891   -1.7272411 
C    -0.6470734    3.5176588   -0.5296209 
C    -1.6848297    4.4761774   -0.5323878 
C    -1.9972428    5.1932218   -1.6950163 
H    -1.5245245    5.5241414   -3.7873601 
H     0.3286562    3.8415811   -3.8081266 
H     0.8800757    2.5642046   -1.7462493 
H    -2.2431858    4.6683759    0.3910641 
H    -2.8028182    5.9344334   -1.6755964 
Fe   -0.7355281   -2.1805897   -2.4876311 
C     0.4193749   -2.6632820   -0.8941706 
C     1.1318543   -2.8935629   -2.1336688 
H     2.0633858   -2.4154522   -2.4401750 
C     0.3873441   -3.8398933   -2.9109644 
H     0.6536774   -4.1943363   -3.9082882 
C    -0.7854270   -4.2028314   -2.1723059 
H    -1.5662382   -4.8896766   -2.5035863 
C    -0.7735956   -3.4823500   -0.9328882 
C    -1.7805460   -0.5043751   -2.0998135 
C    -2.5925848   -1.4463980   -2.8419049 
H    -3.5311872   -1.8936535   -2.5112434 
C    -1.9336734   -1.7151703   -4.0854492 
H    -2.2813468   -2.4099934   -4.8521288 
C    -0.7194736   -0.9533613   -4.1273435 
H     0.0169544   -0.9672656   -4.9326278 
C    -0.6184591   -0.2059668   -2.9097375 
H    -1.5217730   -3.5615619   -0.1425029 
H     0.1959607    0.4598238   -2.6202681 
C    -3.3586186    1.4862191   -0.5505013 
C    -4.5747273    0.9194725    0.2276181 
C    -4.5796793   -0.6117515    0.0911072 
C    -3.1552379   -1.1186994    0.4168192 
H    -2.9588210    2.3672662   -0.0285280 
H    -4.4968639    1.1961872    1.2946303 
H    -5.5127397    1.3648977   -0.1478905 
H    -5.3247445   -1.0835179    0.7569543 
H    -4.8507388   -0.8903600   -0.9432913 
H    -2.9585671   -2.0889150   -0.0668120 
C     1.0430854   -2.6786098    2.0078035 
C     2.1973113   -1.9672494    2.7480000 
C     3.3601647   -1.6805372    1.7620224 
C     2.8231010   -1.5456926    0.3017429 
H     0.1050260   -2.5821125    2.5819415 
H     1.8206533   -1.0120438    3.1497335 
H     2.5336922   -2.5651581    3.6133383 
H     3.8867877   -0.7610107    2.0647903 
H     4.1014587   -2.4968177    1.7910903 
H     3.0686261   -2.4697273   -0.2514198 
C     3.3456531   -0.3426288   -0.4898810 
H     3.0174754    0.6011566   -0.0248448 
H     4.4493993   -0.3456846   -0.5175385 
C     1.3233387   -4.1592094    1.7100533 
H     0.4855001   -4.6410654    1.1817192 
H     2.2291105   -4.2932253    1.0938606 
C    -3.6644477    1.8876952   -2.0009258 
H    -2.7545148    2.2258021   -2.5238992 
H    -4.3856783    2.7237750   -2.0024402 
C    -2.8723911   -1.2269768    1.9241274 
H    -1.8389185   -1.5645677    2.1109716 
H    -3.5637628   -1.9519182    2.3887938 
H     1.4818289   -4.6972183    2.6618825 
H     2.9778624   -0.3512491   -1.5311612 
H    -3.0024839   -0.2585221    2.4385405 
H    -4.1011775    1.0532649   -2.5758297 
