124
Energy =
C     1.4940408    2.5274311    1.4427524 
C     2.1425235    2.4056555    0.1881174 
C     1.4351624    2.6370302   -1.0267549 
H     3.1655180    2.0100608    0.1418839 
Pd    0.5049065    0.9585431    0.1320067 
P    -0.6450746   -0.0181324   -1.6543699 
P    -0.1350024   -0.6671719    1.7457742 
H     0.5936227    3.1596824    1.4765067 
H     0.6014429    3.3537772   -0.9930533 
C     3.4142617    2.1098442    5.2637379 
C     3.9499039    1.4486068    4.1452155 
C     3.3253773    1.5526374    2.8989242 
C     2.1450464    2.3170466    2.7449920 
C     1.5981530    2.9453003    3.8866692 
C     2.2330811    2.8535699    5.1304177 
H     3.9126960    2.0374615    6.2357048 
H     4.8635279    0.8534547    4.2451684 
H     3.7589680    1.0312869    2.0404915 
H     0.6750486    3.5273240    3.7878726 
H     1.8024310    3.3629622    5.9983759 
C     3.1795984    2.1499393   -4.9300902 
C     2.2564060    3.1757353   -4.6836954 
C     1.6851937    3.3173900   -3.4134451 
C     2.0372254    2.4454697   -2.3607854 
C     2.9674439    1.4140892   -2.6239520 
C     3.5309606    1.2667464   -3.8954042 
H     3.6137512    2.0302361   -5.9277445 
H     1.9617963    3.8549608   -5.4900857 
H     0.9553119    4.1128516   -3.2306065 
H     3.2351496    0.7099845   -1.8280936 
H     4.2426342    0.4559308   -4.0836376 
Fe   -3.3049853    1.0481808    0.2329051 
C    -2.3164741   -0.2801173   -0.9790923 
C    -2.5800386   -0.8834969    0.3200707 
C    -4.0057914   -0.8509572    0.5160838 
C    -4.6207289   -0.2454205   -0.6261540 
C    -3.5863114    0.1140173   -1.5479810 
C    -3.7083290    3.0082044   -0.2078821 
C    -4.6102291    2.5121502    0.7910128 
C    -3.8332479    2.0852077    1.9184120 
C    -2.4480417    2.3169218    1.6192779 
C    -2.3748069    2.8893067    0.3070325 
C    -1.6404523   -1.6841298    1.1972566 
H    -4.5237337   -1.2334654    1.3983407 
H    -5.6880734   -0.0606714   -0.7598472 
H    -3.7270620    0.6075519   -2.5110086 
H    -3.9924445    3.3966593   -1.1877176 
H    -5.6963047    2.4526135    0.7012432 
H    -4.2325928    1.6620000    2.8403221 
H    -1.6051114    2.1123295    2.2795755 
H    -1.4601170    3.1847067   -0.2083231 
H    -2.1885718   -1.9052393    2.1284049 
C    -1.2726097   -3.0302221    0.5333347 
H    -0.5788849   -2.8985568   -0.3082107 
H    -0.8053848   -3.7165873    1.2552272 
H    -2.1926594   -3.5008832    0.1464486 
C     3.6053807   -3.4417566    2.2880283 
C     3.6119611   -2.3139432    1.4484118 
C     2.4630666   -1.5281592    1.3226664 
C     1.2738536   -1.8266377    2.0174678 
C     1.2560913   -2.9438913    2.9002258 
C     2.4224945   -3.7244052    2.9979170 
H     4.5180743   -2.0483243    0.8922581 
H     2.4737514   -0.6423590    0.6742108 
H     2.4074889   -4.5929897    3.6682048 
C    -1.2951963    0.2939145    6.1356108 
C    -2.3067068    0.2597701    5.1600718 
C    -1.9390624    0.0003376    3.8273363 
C    -0.5911939   -0.1904038    3.4693655 
C     0.4069518   -0.1114887    4.4619662 
C     0.0609592    0.1024207    5.8085665 
H    -1.5717522    0.4576399    7.1844300 
H    -2.7175346   -0.0577525    3.0607826 
H     1.4582800   -0.2675995    4.1975687 
C     4.8195524   -4.3293791    2.4347787 
H     5.1023506   -4.4420918    3.4965700 
H     4.6118943   -5.3433618    2.0465037 
H     5.6868986   -3.9258363    1.8876594 
C     0.0815399   -3.3187780    3.7805805 
H     0.2553559   -2.9622410    4.8123518 
H    -0.8685451   -2.8739562    3.4536181 
H    -0.0403427   -4.4144466    3.8213107 
C    -3.7549495    0.4987799    5.5279860 
H    -4.4390668   -0.0227909    4.8368011 
H    -3.9745203    0.1559881    6.5528461 
H    -3.9957256    1.5781882    5.4854594 
C     1.1098316    0.0867479    6.8983801 
H     0.8531391   -0.6561828    7.6748718 
H     2.1053194   -0.1588881    6.4971492 
H     1.1789883    1.0691719    7.3990622 
C     1.2751169   -4.0609612   -2.9648458 
C     1.9724264   -3.1171276   -2.2321847 
C     1.3440875   -1.8963817   -1.8865002 
C     0.0357228   -1.6130775   -2.2693327 
H     1.7409005   -5.0186108   -3.2224005 
H     2.9963008   -3.3107937   -1.8977496 
H     1.8838257   -1.1633066   -1.2826674 
C    -0.6983213   -2.5565226   -3.0750544 
C    -0.0574760   -3.8088852   -3.4078626 
C    -0.7686517   -4.7709550   -4.1841443 
C    -2.0531246   -4.5153217   -4.6330837 
C    -2.6750570   -3.2776964   -4.3263708 
C    -2.0146556   -2.3240125   -3.5674420 
H    -0.2744729   -5.7185171   -4.4252119 
H    -2.5873775   -5.2609885   -5.2305438 
H    -3.6848949   -3.0714486   -4.6958319 
H    -2.5059218   -1.3734542   -3.3545313 
C    -0.2345199    0.6067815   -4.3542168 
C    -0.8694002    0.9797277   -3.1736319 
C    -1.6147450    2.1974250   -3.1314561 
C    -1.7308260    2.9909804   -4.2577634 
H     0.3629970   -0.3089958   -4.3989402 
H    -2.1077350    2.4831915   -2.2015662 
H    -2.3110660    3.9196521   -4.2152624 
C    -1.0950648    2.6296795   -5.4826794 
C    -0.3344833    1.4066821   -5.5271674 
C     0.3219498    1.0417493   -6.7387320 
C     0.2383829    1.8540811   -7.8578027 
C    -0.5082535    3.0629241   -7.8130059 
C    -1.1641126    3.4413154   -6.6512933 
H     0.9015070    0.1127692   -6.7661388 
H     0.7478937    1.5677112   -8.7836657 
H    -0.5660728    3.6954927   -8.7049034 
H    -1.7416250    4.3717917   -6.6186589 
