116
Energy =
C    -3.4569546    0.1896164   -0.1837317 
C    -2.8927844    0.7768644   -1.3701843 
C    -2.4148622   -0.0235008   -2.4128945 
H    -2.8633405    1.8699540   -1.4683076 
Pd   -1.2607310   -0.1616988   -0.1407793 
P     1.0368990    0.3254091   -0.5427251 
P    -0.9137089   -1.3843998    1.8818960 
H    -3.9133354   -0.7960724   -0.3231493 
H    -2.5268167   -1.1113722   -2.2921583 
C    -5.4504220    2.6072785    2.7744666 
C    -4.2940379    3.0910950    2.1405494 
C    -3.6430548    2.3158102    1.1752142 
C    -4.1267471    1.0328752    0.8267812 
C    -5.3005751    0.5664304    1.4633528 
C    -5.9545444    1.3445292    2.4262871 
H    -5.9585374    3.2142468    3.5306557 
H    -3.8971001    4.0774302    2.4028923 
H    -2.7341305    2.6993233    0.6982984 
H    -5.7015576   -0.4172239    1.1944959 
H    -6.8626003    0.9649378    2.9061005 
C    -1.3621337    1.1231013   -6.4109927 
C    -1.3180747   -0.2228460   -6.0141723 
C    -1.6627543   -0.5760184   -4.7065165 
C    -2.0497015    0.4060761   -3.7607131 
C    -2.1245774    1.7551149   -4.1909945 
C    -1.7768205    2.1076738   -5.4968957 
H    -1.0929584    1.4037062   -7.4343772 
H    -1.0173903   -0.9971207   -6.7272364 
H    -1.6262733   -1.6268784   -4.3997197 
H    -2.4682733    2.5337551   -3.5032183 
H    -1.8399104    3.1545674   -5.8108476 
Fe    3.8311148   -0.6522921    1.5587868 
C     2.0703819    0.2204444    0.9581388 
C     1.8449286   -0.7488368    2.0156645 
C     2.6287300   -0.3421360    3.1552851 
C     3.3335558    0.8604396    2.8166467 
C     3.0091276    1.2011173    1.4632537 
C     5.5873239   -0.5857343    0.5071367 
C     5.8314731   -0.7597799    1.9109747 
C     5.1800577   -1.9699199    2.3299007 
C     4.5365854   -2.5458955    1.1833219 
C     4.7918975   -1.6932317    0.0612933 
C     0.9282932   -1.9413399    1.9157466 
H     2.7119496   -0.8734902    4.1042180 
H     4.0303466    1.3970285    3.4630306 
H     3.4002158    2.0594983    0.9150821 
H     5.9491461    0.2388340   -0.1096419 
H     6.3953324   -0.0812381    2.5536491 
H     5.1663608   -2.3703751    3.3453809 
H     3.9673083   -3.4768483    1.1596545 
H     4.4592482   -1.8725611   -0.9596367 
H     1.0314156   -2.3386583    0.8891558 
C     1.3520197   -3.0527838    2.8972304 
H     2.4450681   -3.1690755    2.8177593 
H     1.1179992   -2.8156696    3.9439000 
H     0.8926105   -4.0204780    2.6516047 
C    -1.8846873   -3.0505311    1.8309444 
C    -1.2575782   -0.3900652    3.4865682 
C    -1.2210640   -3.9148255    0.7298927 
H    -1.8682478   -4.7862940    0.5226838 
H    -1.1146169   -3.3420043   -0.2109179 
H    -0.2314605   -4.3028154    1.0174206 
C    -2.7744170   -0.3461151    3.7567585 
H    -2.9633633    0.3724938    4.5746712 
H    -3.3385515    0.0019538    2.8808515 
H    -3.1733617   -1.3222038    4.0767605 
C    -1.9134127   -3.8016770    3.1817404 
H    -2.3879304   -4.7875096    3.0216809 
H    -0.9170955   -3.9797815    3.6077704 
H    -2.5190974   -3.2655611    3.9296677 
C    -3.3433686   -2.8043862    1.3862292 
H    -3.9051426   -3.7506693    1.4891770 
H    -3.8576369   -2.0382393    1.9847268 
H    -3.3831229   -2.5085277    0.3272460 
C    -0.5398470   -0.9323090    4.7391445 
H    -0.8346421   -0.3051703    5.6007371 
H    -0.8223711   -1.9700176    4.9754549 
H     0.5538526   -0.8663795    4.6484396 
C    -0.7689784    1.0499010    3.1991851 
H    -1.3145823    1.4867851    2.3472448 
H    -0.9661338    1.6767894    4.0883355 
H     0.3109231    1.0897896    2.9859869 
H     2.2107071    2.4249382   -0.9684616 
C     0.4403388    4.4772700   -0.1247833 
C     0.4392376    2.9698441    0.1783111 
C     1.1365171    2.1588068   -0.9379045 
C     0.4939862    2.4733637   -2.3006534 
C     0.4891571    3.9808741   -2.6037314 
C    -0.2050074    4.7752460   -1.4871247 
H     1.4840429    4.8486866   -0.1232542 
H    -0.0865526    5.0162835    0.6832997 
H    -0.6076627    2.6112124    0.2568230 
H     0.9083333    2.7721985    1.1566352 
H     0.9958122    1.9278925   -3.1173325 
H    -0.5438964    2.1018232   -2.2730778 
H     1.5327904    4.3350544   -2.7140497 
H    -0.0065837    4.1559176   -3.5758831 
H    -1.2772968    4.4924873   -1.4504589 
H    -0.1721097    5.8578166   -1.7032505 
H     2.3449708   -1.4894604   -1.2997842 
C     3.9868669   -0.6563442   -3.4465671 
C     3.2259240    0.1643809   -2.3863514 
C     1.9924218   -0.6016032   -1.8616002 
C     1.0802047   -1.0757000   -3.0054971 
C     1.8601983   -1.8922117   -4.0488701 
C     3.0592204   -1.0968981   -4.5905906 
H     4.4291610   -1.5571379   -2.9775993 
H     4.8325077   -0.0614564   -3.8358103 
H     2.8992648    1.1114329   -2.8531411 
H     3.8849327    0.4318458   -1.5413847 
H     0.2415742   -1.6643368   -2.5890931 
H     0.6292042   -0.1988214   -3.5016425 
H     2.2204862   -2.8323122   -3.5858492 
H     1.1837225   -2.1826038   -4.8732436 
H     2.6883619   -0.2016941   -5.1285144 
H     3.6204178   -1.6991076   -5.3268776 
