132
Energy =
C     1.4294417   -1.1123252   -3.1799791 
C     1.6207327    0.2639032   -2.8919752 
C     2.4546345    0.7002979   -1.8352783 
H     1.0233292    1.0043361   -3.4402933 
Pd    0.7375048   -0.6005458   -1.0635803 
P     0.4449871    0.5595102    0.9427150 
P    -0.8340205   -2.2803730   -0.4569267 
H     2.2400800   -1.7996195   -2.8966275 
H     3.2252491   -0.0017534   -1.4821133 
C    -1.0488069   -2.4648970   -6.4294174 
C    -1.4259082   -1.3327378   -5.6863885 
C    -0.6248045   -0.8837777   -4.6321297 
C     0.5687027   -1.5614060   -4.2911452 
C     0.9425278   -2.6887575   -5.0547168 
C     0.1424416   -3.1351085   -6.1149204 
H    -1.6800394   -2.8191130   -7.2506433 
H    -2.3558024   -0.8058044   -5.9249143 
H    -0.9452924   -0.0217964   -4.0370877 
H     1.8705839   -3.2179689   -4.8114948 
H     0.4483439   -4.0121596   -6.6945589 
C     3.3456408    4.8105798   -0.9120017 
C     4.2267728    3.7816149   -0.5512743 
C     3.9120335    2.4502260   -0.8434299 
C     2.7160792    2.1157706   -1.5166517 
C     1.8450412    3.1667483   -1.8874678 
C     2.1523049    4.4957501   -1.5820288 
H     3.5890639    5.8528067   -0.6806937 
H     5.1656471    4.0153395   -0.0419531 
H     4.6061329    1.6534456   -0.5577437 
H     0.9149043    2.9502689   -2.4199112 
H     1.4597753    5.2920951   -1.8740572 
Fe    0.7376464   -1.5221326    3.8841289 
C    -0.0809115   -0.4132701    2.3810541 
C    -0.5932481   -1.7761373    2.3793316 
C    -1.2288071   -1.9835469    3.6589691 
C    -1.0801273   -0.8003792    4.4530986 
C    -0.3532846    0.1620866    3.6845156 
C     1.9144377   -3.1959406    3.9764694 
C     2.6676697   -2.0770130    3.4927706 
C     2.6272676   -1.0430658    4.4934323 
C     1.8521690   -1.5314348    5.5959041 
C     1.4057705   -2.8577087    5.2757401 
C    -0.9575145    1.7131015    0.6139305 
C    -1.8243392    2.2054776    1.6094858 
C    -2.9019407    3.0451105    1.2839374 
C    -3.0964318    3.4006003   -0.0721901 
C    -2.2556821    2.9107448   -1.0965785 
C    -1.1951070    2.0707311   -0.7254154 
C     1.7963441    1.5995349    1.6112094 
C     3.0373420    0.9858375    1.8603766 
C     4.0807853    1.6813395    2.4874269 
C     3.8581374    3.0325199    2.8466069 
C     2.6375707    3.6871493    2.5654233 
C     1.6128330    2.9513417    1.9431398 
C    -0.4061320   -2.8428990    1.3105170 
H    -1.7060337   -2.9029273    3.9986926 
H    -1.4176632   -0.6790313    5.4839931 
H    -0.0413235    1.1563421    4.0106302 
H     1.7484638   -4.1360033    3.4462797 
H     3.1791988   -2.0271504    2.5301776 
H     3.0862580   -0.0568213    4.4224265 
H     1.6138836   -0.9776704    6.5058655 
H     0.7705472   -3.4887739    5.9001862 
H    -1.6904233    1.9117911    2.6538196 
H    -0.5585716    1.6402783   -1.5068473 
H     3.1896023   -0.0589777    1.5693966 
H     0.6576673    3.4435184    1.7323076 
H     0.6845685   -2.9933546    1.2079082 
H    -1.3517846   -4.6039965   -0.7020260 
H    -3.1767967   -2.7918539   -0.6743055 
C    -4.3969417   -0.5766846   -1.9160027 
C    -2.9077002   -0.9267326   -1.7587896 
C    -2.6564581   -1.8239722   -0.5246278 
C    -3.2230491   -1.1742401    0.7543179 
C    -4.7134547   -0.8251221    0.5815281 
C    -4.9542901    0.0740706   -0.6404936 
H    -4.9679589   -1.4988082   -2.1428282 
H    -4.5257496    0.0959806   -2.7838700 
H    -2.3263998    0.0036790   -1.6258514 
H    -2.5274334   -1.4096843   -2.6742922 
H    -3.0983218   -1.8476156    1.6179053 
H    -2.6590587   -0.2535234    0.9836910 
H    -5.2955483   -1.7614379    0.4690783 
H    -5.0793777   -0.3342443    1.5015468 
H    -4.4539954    1.0479950   -0.4799874 
H    -6.0324304    0.2851141   -0.7551672 
C     0.6775899   -5.8787672   -2.0721348 
C     0.6568249   -4.4535311   -1.4896217 
C    -0.7878827   -3.9256143   -1.3701800 
C    -1.5130978   -3.9619646   -2.7318470 
C    -1.4798479   -5.3882379   -3.3167640 
C    -0.0496585   -5.9409269   -3.4242667 
H     0.1862330   -6.5670661   -1.3559537 
H     1.7220001   -6.2245700   -2.1753147 
H     1.2274516   -3.7715766   -2.1469608 
H     1.1630045   -4.4416850   -0.5061018 
H    -2.5643210   -3.6463353   -2.6187823 
H    -1.0370303   -3.2615571   -3.4347598 
H    -2.0827715   -6.0585143   -2.6721103 
H    -1.9646960   -5.3821469   -4.3094533 
H     0.5135067   -5.3448508   -4.1662758 
H    -0.0693658   -6.9795729   -3.7999433 
C    -1.0320321   -4.1813980    1.7426375 
H    -0.6886757   -4.4297515    2.7608424 
H    -2.1348801   -4.1387692    1.7534217 
H    -0.7206842   -5.0107268    1.0903096 
C    -3.8717177    3.5356183    2.3324167 
H    -3.7776129    4.6258957    2.4886896 
H    -4.9114398    3.3492499    2.0136792 
H    -3.6966071    3.0378257    3.2995830 
C    -2.5314069    3.2295107   -2.5467527 
H    -2.1296927    2.4409865   -3.2055831 
H    -3.6158028    3.3235687   -2.7218417 
H    -2.0624841    4.1845622   -2.8500437 
O    -4.2041550    4.1498222   -0.3977130 
C    -3.9900423    5.5595728   -0.5584634 
H    -4.9719916    5.9964896   -0.7927387 
H    -3.5970438    6.0118620    0.3717014 
H    -3.2869880    5.7712189   -1.3861419 
C     5.4092829    1.0246574    2.7803033 
H     5.7969402    1.3515339    3.7592214 
H     5.3226591   -0.0741689    2.7758696 
H     6.1669163    1.3024997    2.0227739 
C     2.4425540    5.1379137    2.9343476 
H     2.8113556    5.7992606    2.1271385 
H     1.3757857    5.3697758    3.0866430 
H     3.0014579    5.3864740    3.8510830 
O     4.8340623    3.6963045    3.5597436 
C     5.7771059    4.4684582    2.8090320 
H     6.4502215    4.9343986    3.5439826 
H     6.3701218    3.8285021    2.1276215 
H     5.2757012    5.2590300    2.2194501 
