124
Energy =
C    -0.3994571    2.2681428   -2.6677568 
C    -0.6697597    1.0493220   -3.3194374 
C    -1.8333047    0.2740839   -3.0304665 
H     0.0826013    0.6242914   -3.9961201 
Pd   -0.5701966    0.4316959   -1.2020037 
P    -1.3861508   -1.3667699    0.0478375 
P     0.9651382    1.0115845    0.5107276 
H    -1.2445334    2.7578212   -2.1605406 
H    -2.7312483    0.8166187   -2.6998364 
C     2.8401239    4.9591550   -3.5751485 
C     1.7818606    5.3620215   -2.7468747 
C     0.7395623    4.4739141   -2.4582957 
C     0.7372971    3.1540435   -2.9710028 
C     1.8090176    2.7675559   -3.8101678 
C     2.8402533    3.6620294   -4.1143408 
H     3.6518775    5.6542809   -3.8120624 
H     1.7593781    6.3773030   -2.3376166 
H    -0.0980011    4.8107845   -1.8390358 
H     1.8389401    1.7602560   -4.2370486 
H     3.6519319    3.3454635   -4.7773882 
C    -2.5759998   -3.4034941   -5.1547477 
C    -1.2775456   -3.1000657   -4.7108453 
C    -1.0319352   -1.9110532   -4.0160663 
C    -2.0803179   -1.0008651   -3.7400807 
C    -3.3788641   -1.3200085   -4.1897439 
C    -3.6222249   -2.5058009   -4.8972527 
H    -2.7684590   -4.3324121   -5.7010056 
H    -0.4545752   -3.7956355   -4.9064526 
H    -0.0204242   -1.6909718   -3.6559220 
H    -4.2029238   -0.6258750   -3.9909791 
H    -4.6352302   -2.7296778   -5.2474166 
Fe    2.9219555   -1.7894652    1.9818566 
C     1.4639598   -0.3565009    1.6236763 
C     0.9170253   -1.7120477    1.5941941 
C     1.1705403   -2.3133002    2.8768526 
C     1.8977681   -1.3859154    3.6886373 
C     2.1052063   -0.1975973    2.9189202 
C     3.7881949   -3.5015591    1.2526683 
C     4.1450124   -2.3822997    0.4326928 
C     4.8120335   -1.4189193    1.2647679 
C     4.8677372   -1.9429019    2.5953006 
C     4.2330446   -3.2298383    2.5893134 
C     0.1232287   -2.3883887    0.5024141 
H     0.8935413   -3.3320997    3.1569600 
H     2.2772941   -1.5715126    4.6952208 
H     2.6495156    0.6832825    3.2565362 
H     3.2634604   -4.4022392    0.9289283 
H     3.9562512   -2.2843322   -0.6370513 
H     5.2106696   -0.4582007    0.9403456 
H     5.2918031   -1.4406583    3.4667221 
H     4.0870003   -3.8767928    3.4565436 
H    -0.9200604    1.8492868    1.6894558 
C    -0.9461594    4.6083825    1.5761006 
C    -0.0438905    3.6071484    0.8348574 
C     0.0936706    2.2830809    1.6148699 
C     0.5854568    2.5226040    3.0573496 
C    -0.3037920    3.5563887    3.7790224 
C    -0.4249397    4.8718949    2.9962639 
H    -1.9752504    4.2007949    1.6295297 
H    -1.0061090    5.5492873    0.9992915 
H     0.9538418    4.0613270    0.6849942 
H    -0.4517270    3.3956980   -0.1668666 
H     0.5694369    1.5769346    3.6229012 
H     1.6302873    2.8832315    3.0505355 
H    -1.3143025    3.1254229    3.9198102 
H     0.1017287    3.7394656    4.7900774 
H     0.5685676    5.3588026    2.9363628 
H    -1.0902902    5.5746685    3.5284771 
H     2.1216527    2.6519500   -0.7759863 
C     4.4509037    1.3634865   -1.7995583 
C     3.1676708    0.7965903   -1.1635786 
C     2.5072360    1.7956851   -0.1891306 
C     3.5158002    2.3186335    0.8530353 
C     4.7399356    2.9444377    0.1584629 
C     5.4338904    1.9304326   -0.7630813 
H     4.1691988    2.1749583   -2.4929126 
H     4.9371654    0.5785361   -2.4073722 
H     3.3893951   -0.1278281   -0.6026719 
H     2.4431132    0.5220999   -1.9541911 
H     3.0377033    3.0621807    1.5137189 
H     3.8461250    1.4769033    1.4899872 
H     4.4094363    3.8179508   -0.4373881 
H     5.4449475    3.3244599    0.9194879 
H     5.8568335    1.1099939   -0.1509374 
H     6.2907270    2.4013228   -1.2768546 
H    -1.1700536   -0.3487420    2.1504963 
C    -2.8802090   -1.3157231    4.0321594 
C    -2.5531326   -1.9106649    2.6491074 
C    -2.0749561   -0.7975050    1.6920812 
C    -3.1234667    0.3326771    1.5680961 
C    -3.4531669    0.9108854    2.9560204 
C    -3.9187661   -0.1867318    3.9271933 
H    -1.9472197   -0.9208795    4.4812306 
H    -3.2429878   -2.1142652    4.7038355 
H    -3.4579681   -2.3950216    2.2375782 
H    -1.7816682   -2.6946816    2.7478959 
H    -2.7477639    1.1236766    0.8901940 
H    -4.0490643   -0.0550836    1.1093896 
H    -2.5490973    1.4003207    3.3684418 
H    -4.2222984    1.6982726    2.8600364 
H    -4.8791809   -0.6070723    3.5686825 
H    -4.1168923    0.2450350    4.9242735 
H    -2.2343321   -2.5968616   -1.8168781 
C    -4.9885508   -3.0050163   -1.4735804 
C    -4.0210641   -2.0595501   -0.7386642 
C    -2.5677126   -2.5882527   -0.7621391 
C    -2.4852994   -4.0418697   -0.2389773 
C    -3.4600483   -4.9555379   -1.0069865 
C    -4.9027856   -4.4364242   -0.9252369 
H    -4.7372831   -3.0158029   -2.5487501 
H    -6.0174704   -2.6116565   -1.3866476 
H    -4.3585542   -1.9652025    0.3095769 
H    -4.0608707   -1.0475552   -1.1826941 
H    -1.4605335   -4.4355389   -0.3536481 
H    -2.7267676   -4.0757263    0.8393686 
H    -3.1467666   -5.0025731   -2.0685261 
H    -3.3895168   -5.9825941   -0.6059415 
H    -5.2410235   -4.4539381    0.1301386 
H    -5.5829179   -5.1019439   -1.4859984 
H    -0.2517139   -3.3349428    0.9260569 
C     0.9055191   -2.7000552   -0.7879572 
H     0.2420150   -3.1108901   -1.5692038 
H     1.3798858   -1.7854698   -1.1834317 
H     1.6934075   -3.4397585   -0.5790622 
