106
Energy =
C    -1.9293227   -1.7381030   -2.1340269 
C    -0.7009872   -1.9538259   -2.8252279 
C     0.2846074   -2.8265138   -2.2904056 
H    -0.4486016   -1.3016859   -3.6709159 
Pd   -0.2085023   -1.1900218   -0.8348778 
P     1.8821557   -0.9478598    0.1426494 
P    -1.2455150    0.3913535    0.5326309 
H    -2.3137425   -2.5684865   -1.5215409 
H    -0.0708618   -3.6291555   -1.6257051 
C    -4.9078915    1.1627874   -3.2451025 
C    -3.5472608    1.4474803   -3.4506639 
C    -2.5720975    0.5102536   -3.0973525 
C    -2.9366050   -0.7322979   -2.5294531 
C    -4.3052204   -0.9975609   -2.3120417 
C    -5.2820384   -0.0607800   -2.6715216 
H    -5.6712328    1.8961877   -3.5254498 
H    -3.2457313    2.4081956   -3.8808677 
H    -1.5132611    0.7559324   -3.2330173 
H    -4.6031988   -1.9478404   -1.8568313 
H    -6.3388325   -0.2851543   -2.4948156 
C     4.2599326   -3.4915520   -3.7976505 
C     3.7297419   -4.3051582   -2.7859482 
C     2.4332677   -4.0772646   -2.3098417 
C     1.6421532   -3.0265717   -2.8283916 
C     2.1969360   -2.2050170   -3.8368919 
C     3.4866403   -2.4419767   -4.3204099 
H     5.2704296   -3.6723781   -4.1782684 
H     4.3233282   -5.1272384   -2.3724470 
H     2.0218310   -4.7219527   -1.5260701 
H     1.6189283   -1.3708693   -4.2466237 
H     3.8959133   -1.7996116   -5.1064537 
Fe    2.6034800    0.6858914    3.2196659 
C     1.9689498    0.4339931    1.3226635 
C     0.8770530    0.9165414    2.1636914 
C     1.2994261    2.1771110    2.7121704 
C     2.6149435    2.4778865    2.2347795 
C     3.0360055    1.4105871    1.3804985 
C     3.0877680    0.9543539    5.1894505 
C     2.2374969   -0.1905923    5.0384522 
C     2.8838954   -1.1120896    4.1473945 
C     4.1412061   -0.5366360    3.7528386 
C     4.2660655    0.7386782    4.3987547 
C    -0.5111869    0.3356912    2.2867886 
H     0.7098411    2.7889890    3.3976093 
H     3.2118840    3.3499890    2.5075372 
H     3.9917683    1.3293015    0.8599952 
H     2.8672058    1.8426034    5.7841847 
H     1.2662345   -0.3260011    5.5175077 
H     2.4869717   -2.0742096    3.8174301 
H     4.8576281   -0.9771870    3.0590328 
H     5.0968199    1.4374199    4.2837555 
H    -1.1227244    1.0270273    2.8928560 
C    -0.5844575   -1.0720506    2.8935672 
H    -0.1333756   -1.0581534    3.8975724 
H    -1.6266926   -1.4174623    2.9865859 
H    -0.0220316   -1.8005925    2.2849473 
C     3.1614108   -0.5222235   -1.0652600 
C     4.4704373   -0.8951972   -1.2824416 
C     4.9506218   -0.0793531   -2.3573671 
C     3.9069936    0.7328978   -2.7222956 
H     5.0141922   -1.6613176   -0.7333944 
H     5.9435029   -0.1013145   -2.8067298 
H     3.7798906    1.5047130   -3.4798905 
O     2.8109138    0.4760649   -1.9508979 
C     2.4939527   -2.4709377    0.8944706 
C     1.8220377   -3.6363250    1.2048611 
C     2.7745333   -4.5129451    1.8166119 
C     3.9633761   -3.8261888    1.8343621 
H     0.7678309   -3.8347849    1.0090155 
H     2.6027837   -5.5218620    2.1915143 
H     4.9652377   -4.0649726    2.1891381 
O     3.8095886   -2.5871972    1.2847738 
C    -0.0535988    4.6848606   -0.6712066 
C    -0.9157743    4.5172443    0.4331826 
C    -1.3131014    3.2154987    0.7782809 
C    -0.8721502    2.1074957    0.0237185 
C    -0.0120625    2.3042113   -1.0684134 
C     0.4158470    3.5972771   -1.4258181 
H     0.2664093    5.6983728   -0.9431322 
H    -1.9652268    3.0692320    1.6470573 
H     0.3555559    1.4374297   -1.6306282 
C    -5.8153784   -0.2192890    0.9297132 
C    -4.9362619   -1.2940409    1.1805998 
C    -3.5581906   -1.0685284    1.0506829 
C    -3.0599789    0.2071778    0.7000914 
C    -3.9594551    1.2480244    0.4209913 
C    -5.3507881    1.0449865    0.5361877 
H    -6.8958777   -0.3838643    1.0217457 
H    -2.8640025   -1.9041124    1.2009511 
H    -3.5899360    2.2215596    0.0858039 
C    -1.3831401    5.7157540    1.2291794 
H    -0.5272042    6.2380398    1.6941423 
H    -1.8947575    6.4480524    0.5792324 
H    -2.0811681    5.4238977    2.0308829 
C     1.3942315    3.7909023   -2.5630399 
H     1.2192668    3.0612413   -3.3722409 
H     1.3298349    4.8058882   -2.9882436 
H     2.4299871    3.6423999   -2.2034896 
C    -5.4771158   -2.6558354    1.5558856 
H    -6.0726303   -2.6029113    2.4849889 
H    -6.1446532   -3.0473826    0.7667336 
H    -4.6664944   -3.3866925    1.7119763 
C    -6.3047301    2.1722893    0.2130066 
H    -7.3537691    1.8767897    0.3755170 
H    -6.0970073    3.0608000    0.8356746 
H    -6.1931197    2.4797715   -0.8426800 
