98
Energy =
C    -1.0141392   -1.8448401   -2.2080979 
C    -0.7577288   -0.5972641   -2.8185917 
C     0.5720585   -0.1024806   -2.9255287 
H    -1.5970433    0.0359207   -3.1314388 
Pd   -0.0173839   -0.3303502   -0.7584302 
P     1.6846371    1.0896925    0.0739207 
P    -1.1215149   -0.9941712    1.2210278 
H    -0.1667936   -2.5417498   -2.1271860 
H     1.3726913   -0.8547425   -2.9474076 
C    -4.8388474   -3.7888651   -1.9117599 
C    -4.7823758   -2.3955973   -2.0897453 
C    -3.5478588   -1.7474215   -2.1923811 
C    -2.3386230   -2.4766175   -2.1055501 
C    -2.4121422   -3.8787852   -1.9378584 
C    -3.6490141   -4.5289166   -1.8466949 
H    -5.8068059   -4.2940517   -1.8339035 
H    -5.7075728   -1.8135283   -2.1528749 
H    -3.5230169   -0.6626582   -2.3370753 
H    -1.4860106   -4.4610320   -1.8784581 
H    -3.6841778   -5.6162175   -1.7241756 
C     1.5990322    3.6260495   -4.8115211 
C     0.3422495    3.4765379   -4.1997528 
C     0.0006786    2.2741542   -3.5738399 
C     0.9051545    1.1865077   -3.5583066 
C     2.1657218    1.3509214   -4.1767597 
C     2.5101992    2.5596721   -4.7956748 
H     1.8653384    4.5709673   -5.2956963 
H    -0.3690306    4.3087832   -4.2010720 
H    -0.9678284    2.1854548   -3.0698594 
H     2.8765451    0.5169814   -4.1799117 
H     3.4895603    2.6665512   -5.2731970 
Fe    1.0396843    0.4825918    3.3698076 
C    -0.1226218   -1.0198595    2.7426792 
C    -0.4973484   -0.6200417    4.0856306 
H    -1.4697392   -0.2382075    4.4003657 
C     0.6457308   -0.7833557    4.9354184 
H     0.6890171   -0.5358906    5.9975605 
C     1.7277453   -1.2878237    4.1425700 
H     2.7398387   -1.4929350    4.4955953 
C     1.2621355   -1.4403658    2.7961059 
C     1.5863670    1.6190009    1.8153919 
C     2.6220788    1.6256776    2.8308127 
H     3.6524646    1.2885925    2.7099143 
C     2.0547326    2.1325226    4.0458162 
H     2.5769372    2.2286293    4.9993723 
C     0.6799648    2.4533759    3.8009805 
H    -0.0299841    2.8377970    4.5352849 
C     0.3869965    2.1457734    2.4325678 
H     1.8483912   -1.7901021    1.9466217 
H    -0.5741915    2.2709146    1.9354132 
C     2.1106755    2.7233953   -0.7534479 
C     3.5710807    2.9383592   -0.3074183 
C     4.3148523    1.6087764   -0.5180316 
C     3.4423858    0.3977761   -0.0614554 
H     2.1010229    2.5101438   -1.8373609 
H     4.0443946    3.7464694   -0.8920209 
H     3.5961234    3.2483960    0.7539806 
H     4.5183252    1.4908818   -1.5985111 
H     5.2915017    1.5963133   -0.0041984 
H     3.7070370    0.0824648    0.9631698 
C    -1.9777025   -2.6581619    1.3187621 
C    -2.9483651   -2.4596226    2.4983958 
C    -3.6493191   -1.1022722    2.2928773 
C    -2.6652966   -0.0274462    1.7219410 
H    -2.5686109   -2.7321183    0.3870420 
H    -3.6899533   -3.2764370    2.5404910 
H    -2.3877913   -2.4848763    3.4508278 
H    -4.4621491   -1.2387744    1.5566766 
H    -4.1196658   -0.7407401    3.2234412 
H    -2.3374510    0.6726537    2.5106448 
C    -3.3213048    0.7711186    0.5754290 
H    -3.5479424    0.0698696   -0.2479964 
H    -4.3024338    1.1224560    0.9488818 
C    -2.5325428    1.9667893    0.0358434 
H    -1.5383247    1.6496553   -0.3420138 
H    -3.0711031    2.4463340   -0.7998207 
H    -2.3740140    2.7366309    0.8121722 
C    -1.0118991   -3.8506086    1.4048867 
H    -0.3556271   -3.8370415    0.5126685 
H    -0.3482040   -3.7220469    2.2804751 
C    -1.7260370   -5.2068709    1.4997984 
H    -2.2989502   -5.2944992    2.4390046 
H    -2.4302418   -5.3473238    0.6613054 
H    -0.9964893   -6.0344355    1.4768357 
C     1.1284781    3.8683826   -0.4582578 
H     1.0703493    4.0327369    0.6334829 
H     0.1180256    3.5616084   -0.7874835 
C     1.5137743    5.1843819   -1.1499583 
H     1.6214802    5.0437016   -2.2393759 
H     0.7407727    5.9531614   -0.9786749 
H     2.4679007    5.5808569   -0.7619561 
C     3.6222425   -0.8099375   -1.0019273 
H     4.7116733   -0.9793342   -1.1010913 
H     3.2753628   -0.5266314   -2.0125734 
C     2.9524802   -2.1128349   -0.5591810 
H     3.1128038   -2.9129417   -1.3021814 
H     3.3580205   -2.4658536    0.4056769 
H     1.8564979   -1.9777029   -0.4398820 
