110
Energy =
C    -3.6169652    0.6771931    0.0382523 
C    -2.7837610    1.8121954   -0.0527887 
C    -1.9065103    2.0287516   -1.1459233 
H    -2.7791204    2.5294588    0.7759069 
Pd   -1.2503577    0.1903785    0.0226036 
P     0.9868174    0.6239185   -0.3873713 
P    -0.9774177   -2.0626691    0.8262483 
H    -3.8091655    0.1248991   -0.8927372 
H    -2.0951130    1.4384791   -2.0553618 
C    -6.6095643    0.0965541    3.0781345 
C    -5.5272842    0.9593993    3.3223739 
C    -4.5450086    1.1524752    2.3478895 
C    -4.6178280    0.4871032    1.1000064 
C    -5.7249007   -0.3623814    0.8638950 
C    -6.7071232   -0.5586826    1.8419382 
H    -7.3756333   -0.0557132    3.8451583 
H    -5.4492238    1.4813757    4.2816598 
H    -3.7009500    1.8146616    2.5678610 
H    -5.8222048   -0.8620623   -0.1062207 
H    -7.5559575   -1.2183474    1.6346101 
C     0.0609934    5.7575789   -1.9976027 
C     0.0416748    4.7247059   -2.9468213 
C    -0.5728463    3.5040075   -2.6421258 
C    -1.1793922    3.2885783   -1.3822377 
C    -1.1310725    4.3336569   -0.4292051 
C    -0.5240458    5.5545051   -0.7360169 
H     0.5306154    6.7173368   -2.2364346 
H     0.4939890    4.8730532   -3.9328469 
H    -0.6016121    2.7098155   -3.3954001 
H    -1.5730713    4.1988486    0.5623217 
H    -0.4918268    6.3461962    0.0181711 
Fe    3.7048454   -1.6749303    0.0687937 
C     2.1506784   -0.4418539    0.5119666 
C     1.9005447   -1.7952786    0.9835008 
C     2.9666481   -2.1147459    1.9049599 
C     3.8640168   -1.0019393    1.9885488 
C     3.3758439    0.0281206    1.1277566 
C     3.8612215   -1.9968345   -1.9534570 
C     5.0009986   -1.2718222   -1.4630024 
C     5.6338764   -2.0732651   -0.4543364 
C     4.8852032   -3.2912256   -0.3205587 
C     3.7914944   -3.2422758   -1.2491617 
C     1.4088821    2.2670585    0.3290631 
C     2.0267676    3.3188556   -0.3675041 
C     2.3038829    4.5276574    0.2845907 
C     1.9506113    4.6996594    1.6291476 
C     1.3250975    3.6562903    2.3333321 
C     1.0569732    2.4481309    1.6858839 
C     1.5085005    0.6427341   -2.1459768 
C     0.6177871    0.1823796   -3.1329557 
C     1.0027711    0.1501915   -4.4793844 
C     2.2822693    0.5933864   -4.8468481 
C     3.1854406    1.0405609   -3.8673274 
C     2.8040558    1.0529183   -2.5221765 
C     0.7910406   -2.7402488    0.5576549 
H     3.1047875   -3.0603045    2.4288910 
H     4.7794623   -0.9633499    2.5813268 
H     3.8205358    1.0133037    0.9789943 
H     3.1671573   -1.6613659   -2.7250234 
H     5.3408975   -0.2926495   -1.8019967 
H     6.5179749   -1.7979622    0.1234117 
H     5.0999208   -4.1017505    0.3784587 
H     3.0359915   -4.0169253   -1.3957003 
H     2.2658280    3.2249650   -1.4287272 
H     0.5706103    1.6338652    2.2357835 
H    -0.3806023   -0.1590368   -2.8421982 
H     3.5261597    1.3576512   -1.7596333 
H     0.8132181   -2.7896007   -0.5476351 
C     1.0812866   -4.1481773    1.1175491 
H     2.0699150   -4.4718484    0.7506160 
H     1.1232219   -4.1438188    2.2172213 
H     0.3438141   -4.8961151    0.8103284 
C     2.1532720    6.0418627    2.2950684 
F     2.3469431    5.9200668    3.6266163 
F     3.2071874    6.7087516    1.7764531 
F     1.0563735    6.8328357    2.1235570 
H     2.7788412    5.3460324   -0.2631848 
H     1.0544407    3.7938876    3.3841597 
H     0.3141284   -0.2187757   -5.2449086 
H     4.1901036    1.3583266   -4.1607985 
C     2.6770318    0.6303369   -6.3093779 
F     2.3477301    1.8215747   -6.8648914 
F     4.0087639    0.4638578   -6.4689522 
F     2.0472592   -0.3338105   -7.0178310 
C    -2.0620072   -3.1501772   -0.3435207 
C    -1.3963958   -2.2932122    2.6780579 
C    -3.5374488   -2.9671302    0.0590665 
H    -4.1849279   -3.3679347   -0.7421339 
H    -3.7849579   -3.5075354    0.9866843 
H    -3.7876673   -1.9081583    0.2041099 
C    -2.5958679   -1.3832495    3.0073398 
H    -2.8115701   -1.4460600    4.0895367 
H    -2.3659155   -0.3324021    2.7654732 
H    -3.5133842   -1.6613704    2.4676374 
C    -1.8490097   -2.5664692   -1.7615039 
H    -2.4488558   -3.1442770   -2.4885000 
H    -2.1706647   -1.5097680   -1.8132724 
H    -0.7931768   -2.6211891   -2.0820839 
C    -1.7459175   -4.6593786   -0.3939158 
H    -2.5076612   -5.1446916   -1.0316744 
H    -0.7650168   -4.8663716   -0.8509455 
H    -1.7932936   -5.1391571    0.5961450 
C    -1.7166813   -3.7440504    3.0934632 
H    -1.8947854   -3.7642345    4.1845111 
H    -2.6320021   -4.1180317    2.6073086 
H    -0.8964237   -4.4446366    2.8793752 
C    -0.1745966   -1.7611496    3.4640100 
H     0.1322911   -0.7608303    3.1082124 
H    -0.4504771   -1.6719906    4.5304369 
H     0.6985752   -2.4271641    3.3981595 
