98
Energy =
C    -0.6269313   -2.8421283    0.5518979 
C    -1.4391223   -2.1698003    1.5037837 
C    -2.5192353   -1.3586248    1.0856624 
H    -1.1676099   -2.2030605    2.5660743 
Pd   -0.5002758   -0.6001159    0.2676500 
P    -1.0348824    1.6970286    0.2036893 
P     1.5362975   -0.6572780   -0.9439784 
H    -1.0928576   -3.0659922   -0.4179402 
H    -2.9160983   -1.5413115    0.0757109 
C     2.6798511   -5.4096988    1.5398073 
C     2.3135823   -4.3763027    2.4199561 
C     1.2453176   -3.5296799    2.1090616 
C     0.5092297   -3.7070917    0.9138587 
C     0.8873417   -4.7514550    0.0390096 
C     1.9636561   -5.5933809    0.3476302 
H     3.5210614   -6.0662813    1.7836439 
H     2.8742146   -4.2243449    3.3479237 
H     0.9969765   -2.7054761    2.7863876 
H     0.3244758   -4.9055264   -0.8885486 
H     2.2398785   -6.3983516   -0.3410701 
C    -5.3141780    0.6257323    3.6855827 
C    -5.6695042    0.2907089    2.3705984 
C    -4.7457606   -0.3501226    1.5356492 
C    -3.4496276   -0.6740117    1.9985958 
C    -3.1135981   -0.3476574    3.3332226 
C    -4.0337776    0.2987278    4.1644863 
H    -6.0325599    1.1311653    4.3388496 
H    -6.6695802    0.5282023    1.9938117 
H    -5.0274409   -0.6066403    0.5084828 
H    -2.1207219   -0.5951156    3.7227603 
H    -3.7536112    0.5483196    5.1930687 
Fe    1.5107758    2.5975593   -1.8220021 
C     2.4129769    0.9131427   -1.2344838 
C     2.5786063    1.9456636   -0.2347745 
H     2.2336485    1.8827834    0.7963364 
C     3.2519308    3.0566801   -0.8381391 
H     3.4922615    4.0012310   -0.3471424 
C     3.5228692    2.7248141   -2.2054128 
H     4.0058459    3.3715576   -2.9400049 
C     3.0187793    1.4067671   -2.4572286 
C    -0.4031981    2.6113103   -1.2373856 
C    -0.2867936    2.0459686   -2.5653870 
H    -0.5846092    1.0349980   -2.8495403 
C     0.3041573    3.0299187   -3.4234487 
H     0.5485105    2.8938394   -4.4783602 
C     0.5500436    4.2101221   -2.6478700 
H     1.0154738    5.1291739   -3.0083541 
C     0.1150105    3.9647252   -1.3038255 
H     3.0707344    0.8860764   -3.4142851 
H     0.1858798    4.6723042   -0.4762841 
C    -0.5282681    2.7745758    1.6687745 
C    -1.6904954    3.8113191    1.8337930 
C    -2.6903098    3.7374925    0.6615007 
C    -2.8208239    2.2577521    0.2536553 
H     0.4099899    3.2719462    1.3657565 
H    -2.2287490    3.5679392    2.7675827 
H    -1.2853697    4.8302009    1.9574577 
H    -3.6689690    4.1513023    0.9612007 
H    -2.3429955    4.3313514   -0.2037073 
H    -3.2717486    1.6987230    1.0946655 
C     1.3651461   -1.3734249   -2.6828140 
C     2.5386216   -2.3866397   -2.8187022 
C     3.6464114   -2.0519374   -1.8042705 
C     2.9608835   -1.7776019   -0.4492089 
H     1.5211291   -0.5112924   -3.3551196 
H     2.1508829   -3.3988177   -2.5965347 
H     2.9242724   -2.4074690   -3.8523851 
H     4.3654125   -2.8853212   -1.7179529 
H     4.2196583   -1.1607788   -2.1230159 
H     2.4917129   -2.7142953   -0.1022785 
C     3.8451496   -1.2139228    0.6748541 
H     4.2528119   -0.2326749    0.3681168 
H     3.2103008   -1.0283039    1.5625940 
C     5.0000197   -2.1504103    1.0586895 
H     5.5620746   -1.7432949    1.9166935 
H     4.6240157   -3.1500302    1.3377390 
H     5.7119768   -2.2760304    0.2246322 
C    -0.0181252   -1.9726615   -3.0003965 
H    -0.1704409   -2.8728363   -2.3766476 
H    -0.8096044   -1.2567575   -2.7041359 
C    -0.1788345   -2.3402985   -4.4818343 
H    -1.1827843   -2.7533077   -4.6794413 
H    -0.0439583   -1.4524361   -5.1259958 
H     0.5624503   -3.0968589   -4.7928415 
C    -0.2961027    1.9938709    2.9804887 
H    -1.2227889    1.4415856    3.2197707 
H    -0.1802353    2.7462466    3.7843286 
C     0.8996577    1.0381640    3.0146787 
H     0.9450533    0.5059797    3.9807167 
H     0.8268460    0.2736950    2.2122550 
H     1.8574287    1.5740310    2.8884919 
C    -3.6053743    1.9611761   -1.0338667 
H    -3.5766677    0.8698532   -1.2210056 
H    -3.0934959    2.4368689   -1.8916414 
C    -5.0649385    2.4361743   -0.9793478 
H    -5.1275680    3.5358209   -0.9093796 
H    -5.6100482    2.1291968   -1.8882822 
H    -5.5906229    2.0130642   -0.1053553 
