110
Energy =
C    -2.9872028   -0.6983967   -1.4192907 
C    -2.6059156    0.6459523   -1.5659812 
C    -1.3940175    1.0266140   -2.2146219 
H    -3.2323323    1.4323486   -1.1267588 
Pd   -0.8925362   -0.0724058   -0.3436058 
P     1.3311386    0.6212092   -0.4063982 
P    -0.6740065   -1.3390592    1.7184066 
H    -2.4519057   -1.4398553   -2.0312270 
H    -0.9804996    0.3253309   -2.9542961 
C    -6.7494447   -2.0923902    0.1190860 
C    -6.3460463   -0.7683889    0.3678101 
C    -5.1247100   -0.2995380   -0.1216824 
C    -4.2726003   -1.1470376   -0.8727090 
C    -4.6984315   -2.4729214   -1.1224434 
C    -5.9227522   -2.9411976   -0.6316691 
H    -7.7070980   -2.4561254    0.5049392 
H    -6.9901685   -0.1003691    0.9486972 
H    -4.8211021    0.7290021    0.0989754 
H    -4.0625816   -3.1378536   -1.7174322 
H    -6.2352373   -3.9694586   -0.8403990 
C    -0.5187038    5.1681497   -3.0034892 
C    -0.2334435    4.1838990   -3.9604385 
C    -0.5004632    2.8365774   -3.6843624 
C    -1.0674013    2.4495312   -2.4521076 
C    -1.3591167    3.4535133   -1.5002157 
C    -1.0828988    4.7978616   -1.7705941 
H    -0.3043630    6.2206648   -3.2151613 
H     0.2148230    4.4577829   -4.9199813 
H    -0.2678391    2.0739349   -4.4348056 
H    -1.8030067    3.1725863   -0.5373876 
H    -1.3100073    5.5622176   -1.0198624 
Fe    2.1408761   -2.5997066   -1.2615016 
C     2.3247445   -0.8753582   -0.1786025 
C     2.0094204   -2.0149964    0.6825442 
C     3.0777301   -2.9687228    0.4919728 
C     4.0157528   -2.4577847   -0.4583899 
C     3.5568297   -1.1745684   -0.8819892 
C     2.3583449   -4.2028256   -2.5002909 
C     1.2307509   -4.3841520   -1.6284349 
C     0.3126484   -3.3089060   -1.8693117 
C     0.8660717   -2.4741989   -2.8904239 
C     2.1330179   -3.0191427   -3.2793623 
C     1.9121820    1.8256143    0.8568727 
C     3.1671328    1.6820664    1.4780388 
C     3.5635906    2.5890477    2.4689146 
C     2.7168353    3.6505222    2.8253452 
C     1.4852860    3.8271163    2.1726931 
C     1.0820968    2.9117341    1.1967824 
C     2.0086641    1.4216226   -1.9330742 
C     2.1666292    0.6755191   -3.1184220 
C     2.6515365    1.2745716   -4.2844267 
C     2.9731450    2.6409649   -4.2857872 
C     2.8277185    3.3927084   -3.1121772 
C     2.3504133    2.7889555   -1.9427101 
C     0.9748887   -2.2846825    1.7699749 
H     3.1382039   -3.9431712    0.9811864 
H     4.9060025   -2.9724080   -0.8239375 
H     4.0454279   -0.5237140   -1.6079460 
H     3.2411002   -4.8429075   -2.5486794 
H     1.1077876   -5.1901969   -0.9023412 
H    -0.6377093   -3.1423375   -1.3703992 
H     0.3839587   -1.5878122   -3.3036579 
H     2.8134667   -2.6071585   -4.0270335 
H     3.8225368    0.8475598    1.2087443 
H     0.1170276    3.0345523    0.6975410 
H     1.9439181   -0.3902367   -3.1049312 
H     2.2435713    3.4007287   -1.0445430 
H     0.6121199   -3.3041986    1.5512856 
C     1.6838019   -2.3515119    3.1463742 
H     0.9670712   -2.4427939    3.9769462 
H     2.3429929   -3.2354034    3.1757068 
H     2.3115729   -1.4645799    3.3139927 
C     3.0847389    4.5711834    3.9693791 
F     2.4768681    4.1661585    5.1146264 
F     4.4146467    4.5869924    4.2007274 
F     2.6847260    5.8412990    3.7334147 
H     4.5291470    2.4744984    2.9696500 
H     0.8426437    4.6707772    2.4411621 
H     2.7836899    0.6814084   -5.1942235 
H     3.0816767    4.4561446   -3.1110483 
C     3.3940735    3.3138487   -5.5723680 
F     4.1610984    4.4017418   -5.3483444 
F     4.0797888    2.4739208   -6.3787343 
F     2.3008168    3.7312273   -6.2730104 
C    -1.9139398   -2.7926394    2.0118472 
C    -0.8477009   -0.1002471    3.2124128 
C    -3.3306915   -2.2156342    2.2087181 
H    -4.0709297   -3.0298468    2.1131056 
H    -3.4721287   -1.7580745    3.1981154 
H    -3.5692536   -1.4671961    1.4406736 
C    -1.3725958   -0.6710462    4.5485786 
H    -1.3880993    0.1613260    5.2762754 
H    -2.3944917   -1.0714076    4.4932326 
H    -0.7077179   -1.4461511    4.9618832 
C    -1.9205821   -3.6486764    0.7310599 
H    -2.6814070   -4.4432458    0.8316815 
H    -2.1823390   -3.0426636   -0.1492427 
H    -0.9499060   -4.1418495    0.5529155 
C    -1.5381024   -3.7150579    3.1933068 
H    -2.2985067   -4.5151813    3.2579116 
H    -0.5633993   -4.2107625    3.0463767 
H    -1.5254338   -3.1970334    4.1616148 
C     0.5157342    0.5563080    3.5278080 
H     0.3534954    1.5789235    3.9116044 
H     1.0589519   -0.0025975    4.3031256 
H     1.1640358    0.6386649    2.6490754 
C    -1.8393225    0.9757531    2.7010897 
H    -2.8228358    0.5476982    2.4443903 
H    -1.9920287    1.7345412    3.4906610 
H    -1.4440063    1.4849085    1.8030115 
