110
Energy =
C     2.5933355    1.3256566    0.6966165 
C     2.7271341    1.9315373   -0.6006948 
C     1.9835560    3.0609762   -0.9683518 
H     3.4070960    1.4716316   -1.3296506 
Pd    0.7109723    0.9819724   -0.3924389 
P    -1.0886721    0.6527807   -1.9448772 
P    -0.1180726   -0.3646903    1.2994496 
H     2.3171628    1.9970638    1.5204644 
H     1.3897667    3.5457041   -0.1784371 
C     5.1451504   -1.9410056    1.8612171 
C     4.7946930   -0.9468834    2.7866811 
C     3.9345123    0.0941750    2.4108651 
C     3.4291586    0.1725432    1.0939312 
C     3.7753351   -0.8490908    0.1774659 
C     4.6228050   -1.8935717    0.5573087 
H     5.8061941   -2.7631241    2.1533133 
H     5.1923903   -0.9806722    3.8064465 
H     3.6660264    0.8705580    3.1363546 
H     3.3563070   -0.8319422   -0.8356132 
H     4.8673700   -2.6871317   -0.1548471 
C     2.3523589    5.4562958   -4.5100413 
C     1.4728010    5.8259517   -3.4808853 
C     1.3675759    5.0325072   -2.3340536 
C     2.1304225    3.8467096   -2.1929185 
C     3.0322567    3.5035705   -3.2312087 
C     3.1368722    4.2972406   -4.3754674 
H     2.4390425    6.0758838   -5.4084227 
H     0.8738195    6.7378577   -3.5701208 
H     0.6885163    5.3308859   -1.5273116 
H     3.6601736    2.6117008   -3.1427252 
H     3.8394518    4.0175430   -5.1670724 
Fe   -3.1343822   -2.2404334    1.2581365 
C    -1.9148186   -0.6425399    1.1443217 
C    -2.6361530   -0.8149139   -0.1082666 
C    -4.0432371   -0.7597934    0.1965279 
C    -4.2017003   -0.5362784    1.6023563 
C    -2.9017790   -0.4612879    2.1941778 
C    -3.9456379   -3.9764078    0.5629310 
C    -2.5118206   -4.0643211    0.5821623 
C    -2.0745198   -3.8604804    1.9352789 
C    -3.2341945   -3.6392256    2.7487448 
C    -4.3914838   -3.7108207    1.9019423 
C    -0.0360610    0.3648379    2.9861594 
C     0.1260523    1.7554823    3.1275252 
C     0.0970472    2.3528388    4.3941591 
C    -0.1004967    1.5595041    5.5332293 
C    -0.2975154    0.1741164    5.4036642 
C    -0.2731398   -0.4193312    4.1376602 
C     0.7819082   -1.9681093    1.3764796 
C     0.7326747   -2.8167511    0.2507097 
C     1.4696357   -4.0025483    0.2097373 
C     2.2856496   -4.3520918    1.2968826 
C     2.3557568   -3.5119533    2.4161206 
C     1.6188049   -2.3226293    2.4529995 
C    -2.0249093   -0.9507363   -1.4778413 
H    -4.8574132   -0.8968627   -0.5162236 
H    -5.1501101   -0.4707970    2.1381390 
H    -2.6928170   -0.2920004    3.2498861 
H    -4.5873969   -4.0843481   -0.3136030 
H    -1.8687711   -4.2617256   -0.2769742 
H    -1.0390984   -3.8603748    2.2787476 
H    -3.2375324   -3.4352303    3.8210769 
H    -5.4268652   -3.5684388    2.2165299 
H     0.2560436    2.3781902    2.2360791 
H    -0.4610910   -1.4937405    4.0454197 
H     0.1160098   -2.5503898   -0.6109876 
H     1.7278345   -1.6659041    3.3174599 
H    -1.1689869   -1.6390628   -1.3863092 
C    -3.0056765   -1.5850593   -2.4810741 
H    -3.4267470   -2.4917639   -2.0130613 
H    -3.8406402   -0.9210929   -2.7453753 
H    -2.5037284   -1.8903472   -3.4102575 
C    -0.0734524    2.1816864    6.9148835 
F     1.1439445    2.0272506    7.4884399 
F    -0.3383273    3.5062002    6.8732111 
F    -0.9801630    1.6000175    7.7328596 
H     0.2194097    3.4343740    4.4996856 
H    -0.4828786   -0.4345448    6.2936907 
H     1.4199991   -4.6550310   -0.6664708 
H     3.0044411   -3.7751897    3.2558109 
C     3.1727373   -5.5742663    1.2279908 
F     4.4324343   -5.2301290    0.8381669 
F     3.2844967   -6.1803132    2.4301431 
F     2.7153971   -6.4834719    0.3396645 
C    -0.3655849    0.2759821   -3.6860133 
C    -2.3233634    2.1114547   -1.9405578 
C     0.7774200    1.2747367   -3.9612100 
H     1.2328108    1.0409330   -4.9409418 
H     0.4445701    2.3217902   -3.9901387 
H     1.5622853    1.1865855   -3.1921559 
C    -1.7044704    3.2817158   -2.7308789 
H    -2.3118131    4.1890722   -2.5588411 
H    -0.6764117    3.4965828   -2.3985959 
H    -1.6879188    3.0967014   -3.8170681 
C     0.2797904   -1.1297243   -3.5953694 
H     0.8874386   -1.3009855   -4.5021504 
H     0.9553137   -1.2006618   -2.7213958 
H    -0.4585351   -1.9453186   -3.5377374 
C    -1.3867259    0.3417226   -4.8408121 
H    -0.8826530    0.0359035   -5.7763077 
H    -2.2500566   -0.3238643   -4.6963776 
H    -1.7620380    1.3665464   -4.9927884 
C    -3.7150112    1.7690534   -2.5081349 
H    -4.3310934    2.6871614   -2.5114363 
H    -3.6691283    1.3959333   -3.5434548 
H    -4.2361989    1.0283397   -1.8817383 
C    -2.4647991    2.5490017   -0.4603021 
H    -3.1459550    3.4184930   -0.4096919 
H    -2.8820471    1.7532853    0.1767464 
H    -1.4880695    2.8531647   -0.0409700 
