110
Energy =
C     2.6773208    1.0671310    0.7112643 
C     2.7115276    1.9447051   -0.4280129 
C     1.8284762    3.0283709   -0.5410520 
H     3.3953612    1.7188027   -1.2559386 
Pd    0.7683508    0.8343121   -0.3647237 
P    -0.9436073    0.5203070   -1.9851534 
P    -0.1694431   -0.4592513    1.3134328 
H     2.3915193    1.5103397    1.6753659 
H     1.2425587    3.2838338    0.3556241 
C     5.0586568   -2.5200880    0.9720296 
C     4.6404770   -1.8552391    2.1348061 
C     3.8908392   -0.6769838    2.0410242 
C     3.5186363   -0.1452953    0.7845145 
C     3.9517212   -0.8278526   -0.3793257 
C     4.7192111   -1.9938282   -0.2854168 
H     5.6371554   -3.4457427    1.0482467 
H     4.9024231   -2.2598524    3.1175542 
H     3.5973146   -0.1461760    2.9519181 
H     3.6662690   -0.4541736   -1.3695827 
H     5.0449833   -2.5035568   -1.1983860 
C     1.6424968    6.0579679   -3.5726370 
C     0.8389252    6.1376032   -2.4247816 
C     0.9134571    5.1372446   -1.4506035 
C     1.7917091    4.0351050   -1.6009708 
C     2.6094135    3.9810504   -2.7567418 
C     2.5298357    4.9786517   -3.7313470 
H     1.5876951    6.8391393   -4.3376479 
H     0.1556782    6.9819916   -2.2890773 
H     0.2825133    5.1985060   -0.5564483 
H     3.3166820    3.1574339   -2.8930733 
H     3.1692740    4.9226120   -4.6181858 
Fe   -3.1113783   -2.4213898    1.0898637 
C    -1.9437259   -0.7654656    1.0822697 
C    -2.5761142   -0.9539241   -0.2153202 
C    -4.0003024   -0.9486176    0.0035410 
C    -4.2511339   -0.7644390    1.4042001 
C    -2.9912113   -0.6624262    2.0783030 
C    -2.9396033   -4.2527811    0.1674400 
C    -1.9815807   -4.1350938    1.2250801 
C    -2.6947814   -3.8895901    2.4470212 
C    -4.0973531   -3.8598369    2.1410653 
C    -4.2485895   -4.0792927    0.7302109 
C    -0.0957587    0.6137611    2.8036666 
C    -0.9575114    1.7335758    2.8549489 
C    -0.8432950    2.6710362    3.8845045 
C     0.1410442    2.5106302    4.8749621 
C     0.9995309    1.4028882    4.8361733 
C     0.8845717    0.4612948    3.8048438 
C     0.6500018   -2.0408248    1.7248902 
C     0.5587211   -2.6554020    2.9897178 
C     1.2345337   -3.8566638    3.2338342 
C     1.9846211   -4.4571123    2.2092762 
C     2.0331887   -3.8795409    0.9311124 
C     1.3762939   -2.6686052    0.6951917 
C    -1.8536451   -1.1034018   -1.5320473 
H    -4.7661568   -1.0991479   -0.7585937 
H    -5.2330966   -0.7481438    1.8802755 
H    -2.8394373   -0.5205987    3.1494252 
H    -2.7100298   -4.4474851   -0.8815186 
H    -0.8999857   -4.2169047    1.1173930 
H    -2.2518547   -3.7499564    3.4340613 
H    -4.9059158   -3.6771454    2.8512615 
H    -5.1919508   -4.0947494    0.1812017 
H    -1.7239620    1.8694245    2.0864324 
H     1.5654045   -0.3930150    3.7844128 
H    -0.0372145   -2.1989781    3.7861562 
H     1.4438191   -2.1916989   -0.2874895 
H    -0.9868022   -1.7633960   -1.3431983 
C    -2.7357033   -1.7776199   -2.5992283 
H    -3.2069984   -2.6645150   -2.1442464 
H    -3.5377253   -1.1241012   -2.9690696 
H    -2.1448318   -2.1175211   -3.4621531 
C     0.3038632    3.5676883    5.9463890 
F     1.0750534    4.5902939    5.4993162 
F    -0.8886721    4.0947223    6.3069530 
F     0.8942063    3.0714932    7.0558802 
H    -1.5213454    3.5286423    3.9256188 
H     1.7555686    1.2737889    5.6159690 
H     1.1824169   -4.3320144    4.2174137 
H     2.6062945   -4.3621598    0.1354346 
C     2.8235059   -5.6834545    2.4933827 
F     2.8579232   -6.5215733    1.4330380 
F     4.1094812   -5.3234673    2.7588425 
F     2.3712856   -6.3748626    3.5603889 
C    -0.0625925    0.1365311   -3.6517454 
C    -2.2222097    1.9345115   -2.1312709 
C    -0.9868525    0.1241213   -4.8872624 
H    -0.3913605   -0.1686517   -5.7718643 
H    -1.8188697   -0.5892140   -4.7971229 
H    -1.4070366    1.1216975   -5.0926230 
C    -2.4772887    2.4220994   -0.6836002 
H    -3.1923540    3.2649961   -0.7095685 
H    -2.9094398    1.6305903   -0.0492651 
H    -1.5414142    2.7785820   -0.2174288 
C     1.0532685    1.1847807   -3.8617175 
H     1.6144388    0.9315890   -4.7799852 
H     0.6712192    2.2089534   -3.9741775 
H     1.7613044    1.1760635   -3.0152878 
C     0.6325699   -1.2363267   -3.4747441 
H     1.3003116   -1.4115264   -4.3376119 
H     1.2560074   -1.2501168   -2.5603756 
H    -0.0749390   -2.0794038   -3.4303399 
C    -1.5965439    3.0969779   -2.9289207 
H    -2.2531201    3.9815934   -2.8391543 
H    -0.6071675    3.3784960   -2.5362503 
H    -1.5004385    2.8666815   -4.0019923 
C    -3.5611076    1.5213212   -2.7741275 
H    -4.2046656    2.4168892   -2.8539394 
H    -3.4336508    1.1131329   -3.7893710 
H    -4.0991623    0.7862400   -2.1554261 
