124
Energy =
C     3.1272294   -1.1505450   -0.1361936 
C     2.7520297   -1.4033457   -1.4878971 
C     2.5658429   -0.3282256   -2.3943644 
H     2.4609207   -2.4171643   -1.7880761 
Pd    1.1779681   -0.1538074   -0.6059864 
P    -0.7273145    0.7579916   -1.6120768 
P     0.3992778    0.0404160    1.5723345 
H     3.7356869   -0.2529175    0.0465604 
H     3.0576229    0.6234347   -2.1375482 
C     3.4511194   -4.1045510    2.9800878 
C     4.0608638   -2.8488731    3.1150922 
C     3.9462498   -1.8977692    2.0933048 
C     3.2106629   -2.1791797    0.9185306 
C     2.5772273   -3.4402932    0.8081870 
C     2.7082364   -4.3937274    1.8231576 
H     3.5385945   -4.8496822    3.7760580 
H     4.6373143   -2.6130579    4.0155160 
H     4.4462234   -0.9280827    2.1923014 
H     1.9676646   -3.6779690   -0.0702903 
H     2.2170489   -5.3666711    1.7202945 
C     1.6172723   -0.6269117   -6.5696166 
C     2.1010210    0.5728898   -6.0278120 
C     2.3702845    0.6626957   -4.6574176 
C     2.1740294   -0.4487603   -3.8047353 
C     1.6524090   -1.6403636   -4.3599275 
C     1.3822220   -1.7268492   -5.7280316 
H     1.4125804   -0.7031095   -7.6422806 
H     2.2778374    1.4376717   -6.6756550 
H     2.7589409    1.5974064   -4.2375043 
H     1.4576034   -2.5070440   -3.7207837 
H     0.9844205   -2.6580825   -6.1431199 
Fe   -2.8987907    0.8657008    2.5756480 
C    -1.0716668    1.0934547    1.7588021 
C    -2.1141789    1.2558220    0.7492919 
C    -2.9452299    2.3512312    1.1739473 
C    -2.4496131    2.8557488    2.4170328 
C    -1.3001449    2.0916689    2.7883291 
C    -4.7546466    0.0266684    2.5319334 
C    -3.7423259   -0.9922343    2.5275018 
C    -2.9557891   -0.8348744    3.7202419 
C    -3.4744772    0.2821024    4.4541805 
C    -4.5864581    0.8159718    3.7201611 
C     1.5689534    0.7597768    2.7822338 
C     2.7141517    1.4040490    2.2912908 
C     3.6348555    1.9869493    3.1719524 
C     3.4196488    1.9460900    4.5558235 
C     2.2594759    1.3280421    5.0451083 
C     1.3353176    0.7415789    4.1695384 
C     0.0042807   -1.6647790    2.1447687 
C    -0.7271391   -2.4288921    1.2227388 
C    -1.0828187   -3.7524340    1.5022086 
C    -0.6984974   -4.3465295    2.7089006 
C     0.0674695   -3.5963183    3.6155104 
C     0.4281005   -2.2696847    3.3409791 
C    -2.2719769    0.4747549   -0.5293127 
H    -3.8328155    2.7138297    0.6551424 
H    -2.8919215    3.6637714    3.0020987 
H    -0.6970187    2.2496003    3.6823026 
H    -5.5137010    0.1839456    1.7633051 
H    -3.6002965   -1.7549421    1.7594015 
H    -2.1084134   -1.4560832    4.0130627 
H    -3.0819351    0.6699734    5.3959583 
H    -5.1858356    1.6828385    4.0039902 
H     2.8894357    1.4497504    1.2121971 
H     0.4281723    0.2865263    4.5783749 
H    -1.0002607   -1.9965113    0.2558719 
H     1.0606715   -1.7434483    4.0576202 
H    -2.2236616   -0.6044041   -0.3020872 
C    -3.5974904    0.7527153   -1.2505915 
H    -4.4338361    0.5145777   -0.5707067 
H    -3.6860099    1.8116914   -1.5419219 
H    -3.6943492    0.1313526   -2.1543854 
C     4.8771979    2.6103819    2.5760612 
F     5.6613320    3.1905352    3.4998515 
F     5.6160967    1.6650313    1.9315061 
F     4.5544200    3.5469601    1.6467358 
C     1.9529956    1.2800446    6.5277474 
F     1.8023522   -0.0013359    6.9425734 
F     2.9187462    1.8512945    7.2706225 
F     0.7851356    1.9202799    6.7901325 
C    -1.8268974   -4.5111340    0.4294675 
F    -2.2487554   -5.7185256    0.8347390 
F    -2.9108425   -3.8056004   -0.0033881 
F    -1.0343809   -4.6897022   -0.6673700 
C     0.4902501   -4.2392114    4.9203101 
F     1.4743155   -3.5414262    5.5313952 
F    -0.5516491   -4.3165936    5.7797865 
F     0.9418094   -5.5008841    4.7187699 
H     4.1402049    2.3940773    5.2441749 
H    -0.9650800   -5.3836803    2.9282009 
C    -1.9678195   -1.4641387   -5.4621120 
C    -1.9456055   -2.1412770   -4.2250985 
C    -1.5458897   -1.4251211   -3.0873971 
C    -1.1853027   -0.0609215   -3.1770391 
C    -1.1753210    0.5764721   -4.4274347 
C    -1.5795252   -0.1195504   -5.5852450 
H    -2.2795925   -2.0107784   -6.3604071 
H    -1.5186684   -1.9440285   -2.1213819 
H    -0.8500976    1.6175809   -4.5134921 
C    -2.3273358   -3.6020663   -4.1338458 
H    -3.3636611   -3.7625134   -4.4814905 
H    -1.6724290   -4.2194558   -4.7754522 
H    -2.2482287   -3.9785493   -3.1013881 
C    -1.6122729    0.5855201   -6.9221681 
H    -1.5446032   -0.1294236   -7.7584712 
H    -2.5565420    1.1495421   -7.0416479 
H    -0.7819029    1.3059616   -7.0119166 
C    -0.4432551    5.3576197   -1.8246275 
C    -1.4671376    4.7362571   -2.5671465 
C    -1.5534628    3.3319353   -2.5499587 
C    -0.6241824    2.5683951   -1.8141015 
C     0.3920669    3.2206188   -1.0874703 
C     0.4949263    4.6222030   -1.0765138 
H    -0.3757965    6.4526931   -1.8311843 
H    -2.3476669    2.8391141   -3.1199287 
H     1.1080635    2.6192899   -0.5121059 
C    -2.4473280    5.5672443   -3.3657930 
H    -2.9453516    6.3168552   -2.7254479 
H    -1.9290405    6.1207022   -4.1698203 
H    -3.2259140    4.9411409   -3.8313186 
C     1.5770925    5.3193730   -0.2812917 
H     1.1354815    5.9845979    0.4825167 
H     2.2350390    4.5997720    0.2335855 
H     2.2056882    5.9498542   -0.9352737 
