86
Energy =
C    -0.8947459    2.7740723   -0.8122307 
C     0.0967924    2.4589157   -1.7675421 
C    -0.1073692    1.4127041   -2.7119158 
H     1.0763775    2.9514458   -1.7211889 
Pd   -0.1651895    0.5992460   -0.6179235 
P    -0.0369923   -1.7212755   -1.0461380 
P    -0.4912763    0.3032371    1.7168031 
H    -1.9216442    2.4494955   -1.0389854 
H    -1.1473960    1.1954382   -2.9978854 
C    -0.7238833    5.9041016    2.1285609 
C     0.4697739    5.4018751    1.5814141 
C     0.4347421    4.3859068    0.6221493 
C    -0.7997393    3.8498951    0.1855328 
C    -1.9936339    4.3722744    0.7376881 
C    -1.9564057    5.3885941    1.7002785 
H    -0.6911282    6.6967766    2.8828334 
H     1.4335149    5.8015979    1.9130683 
H     1.3746834    3.9876259    0.2261835 
H    -2.9583136    3.9771099    0.3998056 
H    -2.8906700    5.7817893    2.1138422 
C     2.8338774    0.4863962   -5.7131382 
C     3.2436342    0.7768581   -4.4003883 
C     2.2945214    1.0690040   -3.4156885 
C     0.9148988    1.0749640   -3.7237806 
C     0.5162545    0.7823726   -5.0467059 
C     1.4681349    0.4929985   -6.0333138 
H     3.5778504    0.2535094   -6.4816213 
H     4.3081219    0.7646353   -4.1443818 
H     2.6189437    1.2608340   -2.3861828 
H    -0.5490041    0.7920985   -5.3036351 
H     1.1424259    0.2717971   -7.0548384 
Fe    1.7257473   -2.3756837    1.8377703 
C     0.5647887   -0.8992276    2.6011777 
C     1.9604976   -0.6995103    2.9325718 
H     2.5710887    0.1569331    2.6452919 
C     2.4129606   -1.8373082    3.6796014 
H     3.4255887   -1.9892312    4.0574260 
C     1.3203693   -2.7582606    3.7999051 
H     1.3531342   -3.7324965    4.2907718 
C     0.1819734   -2.1925846    3.1340775 
C     1.2449719   -2.5726350   -0.0964870 
C     1.3042051   -3.8773130    0.5290794 
H     0.4939601   -4.6006587    0.6031971 
C     2.6212068   -4.0498080    1.0661977 
H     2.9670098   -4.9173778    1.6312951 
C     3.3921087   -2.8771793    0.7687930 
H     4.4270710   -2.6986373    1.0654736 
C     2.5548841   -1.9633028    0.0505617 
H    -0.8011110   -2.6589955    3.0519739 
H     2.8336052   -0.9722315   -0.3145615 
C     0.0390320   -2.5979602   -2.7027625 
C    -1.3132502   -2.2336940   -3.3456621 
C    -2.3872387   -2.0484412   -2.2229213 
C    -1.7963767   -2.3501297   -0.8088814 
H    -0.0105143   -3.6532532   -2.3664843 
H    -1.2016909   -1.3021758   -3.9263445 
H    -1.6088355   -3.0195306   -4.0621164 
H    -2.7603200   -1.0090908   -2.2354778 
H    -3.2641548   -2.6967674   -2.3919893 
H    -2.2871922   -1.7005539   -0.0694735 
C    -2.2353603   -0.2097588    2.1865141 
C    -2.3053093    0.1345828    3.6901741 
C    -1.6692166    1.5264524    3.9141795 
C    -0.5500759    1.8049535    2.8608945 
H    -2.3530896   -1.2950212    2.0213417 
H    -3.3504013    0.1022689    4.0477306 
H    -1.7468738   -0.6254512    4.2628531 
H    -2.4337077    2.3185902    3.8323952 
H    -1.2547496    1.5923859    4.9343410 
H    -0.8957606    2.6016008    2.1846170 
C     0.7846916    2.2577871    3.4632833 
H     1.1706893    1.5270892    4.1937916 
H     1.5508525    2.4238327    2.6864442 
C    -3.2680829    0.5549145    1.3388136 
H    -3.1725032    0.3146673    0.2649872 
H    -4.2901417    0.2905583    1.6616130 
C     1.2937903   -2.4450827   -3.5591163 
H     1.2256391   -3.1108898   -4.4377050 
H     2.1942584   -2.7325347   -2.9896558 
C    -1.9639381   -3.8075345   -0.3556535 
H    -3.0368189   -4.0704024   -0.3713640 
H    -1.6004227   -3.9475706    0.6760592 
H    -1.4401609   -4.5228331   -1.0126425 
H     1.4248585   -1.4172968   -3.9219682 
H    -3.1537771    1.6474775    1.4487983 
H     0.6349360    3.2180266    3.9865953 
