134
Energy =
C     2.8768461    1.7414774   -0.8728194 
C     2.1776756    1.3342597   -2.0163453 
C     0.8798076    1.8639458   -2.3236617 
H     2.6144606    0.5819359   -2.6846650 
Pd    0.6974988    0.5774736   -0.5300774 
P    -1.6239193    0.7814768   -0.3763206 
P     1.2071385   -0.8132552    1.4026265 
H     2.4647540    2.5915684   -0.3097615 
H     0.6590777    2.8676644   -1.9308555 
C     6.9329513    0.8232124    0.1854743 
C     6.2037273    1.7837107    0.9032931 
C     4.8808169    2.0665640    0.5473781 
C     4.2528470    1.3856350   -0.5253464 
C     5.0091981    0.4305103   -1.2484278 
C     6.3329503    0.1564755   -0.8972817 
H     7.9696195    0.6021193    0.4589051 
H     6.6709760    2.3207083    1.7348375 
H     4.3230133    2.8355412    1.0923475 
H     4.5569883   -0.1041230   -2.0892365 
H     6.9039862   -0.5827048   -1.4680743 
C    -1.1459608    0.9651160   -6.0137275 
C    -0.4027413   -0.0350414   -5.3640651 
C     0.2591436    0.2446745   -4.1644703 
C     0.1865885    1.5320166   -3.5840168 
C    -0.5485599    2.5321509   -4.2572935 
C    -1.2091657    2.2518094   -5.4596723 
H    -1.6743646    0.7390218   -6.9449710 
H    -0.3496065   -1.0415349   -5.7924090 
H     0.8111729   -0.5496299   -3.6511952 
H    -0.5936725    3.5412921   -3.8356198 
H    -1.7781829    3.0434339   -5.9581728 
Fe   -2.0886593   -3.6211431   -1.6089806 
C    -1.5091308   -1.8611634   -0.8376613 
C    -0.6650862   -2.9121654   -0.2972305 
C    -0.0617121   -3.6074247   -1.4081696 
H     0.6013411   -4.4688926   -1.3156913 
C    -0.4559075   -2.9591447   -2.6202747 
H    -0.1703632   -3.2509707   -3.6325623 
C    -1.3385996   -1.8837785   -2.2794974 
H    -1.8045107   -1.2261885   -3.0108874 
C    -4.1288633   -3.6449622   -1.5159383 
H    -4.7797556   -2.8122709   -1.2399488 
C    -3.5757679   -4.6216217   -0.6205911 
H    -3.7357740   -4.6641843    0.4585977 
C    -2.7837369   -5.5351960   -1.3981493 
H    -2.2295287   -6.3959462   -1.0188864 
C    -2.8489976   -5.1208819   -2.7708546 
H    -2.3384933   -5.5978627   -3.6093498 
C    -3.6794949   -3.9520166   -2.8443590 
H    -3.9096193   -3.3763410   -3.7434392 
C    -0.3782586   -3.2389025    1.1221241 
C     0.3455141   -2.3653598    1.9809521 
C     0.5467253   -2.7663517    3.3231310 
H     1.0892996   -2.1178699    4.0146234 
C     0.0821919   -3.9945827    3.8076799 
H     0.2556870   -4.2642978    4.8542664 
C    -0.5847731   -4.8717816    2.9440026 
H    -0.9395569   -5.8437742    3.3014344 
C    -0.8083817   -4.4869434    1.6192852 
H    -1.3424564   -5.1473544    0.9318225 
C    -1.9229814    2.0391678    0.9419851 
C    -0.9467273    3.0498339    1.0255907 
H    -0.0843426    3.0224334    0.3513826 
C    -1.0445697    4.0692758    1.9786989 
C    -2.0965977    4.0665741    2.9034021 
H    -2.1585736    4.8361489    3.6771279 
C    -3.0632589    3.0518384    2.8323951 
C    -3.0069926    2.0642878    1.8365665 
H    -3.8014201    1.3172937    1.7888394 
C    -2.6712143    1.4840335   -1.7338374 
C    -2.6886018    2.8750842   -1.9640681 
H    -2.1063318    3.5546805   -1.3354061 
C    -3.4393192    3.4122044   -3.0169876 
C    -4.1788346    2.5826726   -3.8743402 
H    -4.7392703    3.0029129   -4.7127192 
C    -4.1618934    1.2041442   -3.6480018 
C    -3.4292849    0.6622232   -2.5839833 
H    -3.4753582   -0.4185894   -2.4413037 
C    -2.4133063   -0.9030722   -0.0788460 
H    -3.3814010   -0.8709935   -0.6017990 
C    -2.7058200   -1.2613979    1.3863990 
H    -2.8902364   -2.3456429    1.4544068 
H    -1.8763108   -1.0187092    2.0654997 
H    -3.6103705   -0.7430904    1.7394758 
C    -3.4141618    4.9063328   -3.2630320 
F    -3.5009102    5.1823964   -4.5854788 
F    -4.4319394    5.5405104   -2.6449616 
F    -2.2570050    5.4560772   -2.8066774 
C    -4.8754877    0.2306331   -4.5602304 
F    -3.9749276   -0.5469189   -5.2262750 
F    -5.6584421   -0.6207230   -3.8494787 
F    -5.6438031    0.8458859   -5.4759991 
C    -0.0017778    5.1669375    1.9755728 
F    -0.2710479    6.0971795    1.0341250 
F     0.0823399    5.7904853    3.1670933 
F     1.2346433    4.6619267    1.6867753 
C    -4.1327491    2.9698300    3.9028917 
F    -5.2457615    2.3499364    3.4514187 
F    -3.6757882    2.2549021    4.9648552 
F    -4.4829350    4.1894288    4.3575440 
H     1.9151264   -0.4280520    3.6920632 
C     0.1663025    1.3057775    4.9356161 
C    -0.0196922    0.5308716    3.6174946 
C     1.3438105    0.1961429    2.9798430 
C     2.1626655    1.4769955    2.7419211 
C     2.3588528    2.2579100    4.0546275 
C     1.0185811    2.5702753    4.7402870 
H     0.6528198    0.6428113    5.6779241 
H    -0.8254539    1.5693344    5.3450213 
H    -0.6049594    1.1432573    2.9112106 
H    -0.6024372   -0.3878219    3.8050224 
H     3.1427491    1.2242158    2.3031312 
H     1.6320690    2.1130095    2.0083533 
H     2.9928844    1.6586881    4.7372401 
H     2.9092126    3.1936358    3.8485166 
H     0.4568885    3.2915577    4.1201262 
H     1.1937788    3.0670736    5.7109559 
H     3.4975930   -0.5904358    0.7257158 
C     4.2921307   -3.0732324   -0.3879275 
C     2.8969326   -2.5268788   -0.0347462 
C     2.9494671   -1.4755263    1.0965075 
C     3.6911514   -2.0198292    2.3318914 
C     5.0981610   -2.5168706    1.9441033 
C     5.0260647   -3.5987704    0.8554154 
H     4.8951212   -2.2699745   -0.8474571 
H     4.1905533   -3.8701564   -1.1470368 
H     2.2595961   -3.3683411    0.2959745 
H     2.4092273   -2.0937996   -0.9292206 
H     3.7767646   -1.2401333    3.1096969 
H     3.1203656   -2.8607239    2.7688962 
H     5.6965201   -1.6602242    1.5767304 
H     5.6105890   -2.9040682    2.8430102 
H     4.4899449   -4.4824567    1.2545615 
H     6.0409936   -3.9405265    0.5840877 
