110
Energy =
C    -3.5253450    0.8495476    0.2070914 
C    -2.6730270    1.9824421    0.0854294 
C    -1.9387943    2.2293487   -1.0942744 
H    -2.5046068    2.6241124    0.9588537 
Pd   -1.3412610    0.2296836   -0.1135401 
P     0.9488255    0.6121192   -0.3371608 
P    -1.1883260   -2.1096208    0.3855328 
H    -3.9615875    0.4620027   -0.7226353 
H    -2.2333041    1.6685636   -1.9951386 
C    -5.8198238   -0.0107987    3.7475013 
C    -4.6151595    0.7046084    3.8533101 
C    -3.8622814    0.9899329    2.7102368 
C    -4.2975833    0.5685049    1.4306769 
C    -5.5194027   -0.1373507    1.3392272 
C    -6.2703513   -0.4264316    2.4853574 
H    -6.4057269   -0.2375815    4.6439061 
H    -4.2590757    1.0352012    4.8346009 
H    -2.9136375    1.5281340    2.8137607 
H    -5.8834969   -0.4549309    0.3562233 
H    -7.2143659   -0.9732171    2.3923830 
C     0.2974296    5.7835308   -2.0109851 
C     0.2560030    4.7113936   -2.9164243 
C    -0.4594922    3.5526223   -2.5952558 
C    -1.1352517    3.4330771   -1.3572610 
C    -1.0726211    4.5181904   -0.4515486 
C    -0.3703370    5.6818577   -0.7790846 
H     0.8434301    6.6979250   -2.2651207 
H     0.7693928    4.7823360   -3.8809894 
H    -0.5062921    2.7287656   -3.3144544 
H    -1.5851339    4.4648726    0.5133629 
H    -0.3332326    6.5074662   -0.0621911 
Fe    3.6000319   -1.7269130    0.2679046 
C     1.9505586   -0.5825507    0.5971704 
C     1.6241742   -1.9954807    0.6971570 
C     2.4605035   -2.5518968    1.7305855 
C     3.2850787   -1.5071082    2.2666788 
C     2.9849931   -0.2936787    1.5679784 
C     4.1828660   -3.0591149   -1.1902687 
C     4.2006092   -1.7206787   -1.6977950 
C     5.1005746   -0.9503561   -0.8834835 
C     5.6327987   -1.8171600    0.1284080 
C     5.0611337   -3.1200523   -0.0577890 
C     1.3317894    2.1948962    0.5180125 
C     1.9759055    3.2971856   -0.0692412 
C     2.1728641    4.4726474    0.6668344 
C     1.7041552    4.5667923    1.9834482 
C     1.0532506    3.4730765    2.5796238 
C     0.8710994    2.2945930    1.8515688 
C     1.5996838    0.7212197   -2.0475222 
C     2.8907974    1.2050492   -2.3406864 
C     3.3278856    1.2916916   -3.6659049 
C     2.4862128    0.8694744   -4.7095587 
C     1.2153564    0.3467322   -4.4268395 
C     0.7733892    0.2823356   -3.0992631 
C     0.5712425   -2.7033170   -0.1178512 
H     2.4967160   -3.5994170    2.0328905 
H     4.0434461   -1.6265925    3.0424774 
H     3.4422930    0.6822359    1.7370024 
H     3.6061110   -3.8886951   -1.6019560 
H     3.6325101   -1.3582765   -2.5547672 
H     5.3515419    0.1036393   -1.0087244 
H     6.3309764   -1.5299532    0.9167558 
H     5.2471287   -3.9972930    0.5644371 
H     2.2940147    3.2714195   -1.1132113 
H     0.3669448    1.4412569    2.3184410 
H     3.5627937    1.4994319   -1.5305429 
H    -0.2269195   -0.1035754   -2.8713829 
H     0.6331433   -2.2941409   -1.1434542 
C     0.8392004   -4.2187394   -0.1965713 
H     1.9073177   -4.3602308   -0.4271059 
H     0.6294126   -4.7423871    0.7458569 
H     0.2571150   -4.6995282   -0.9954452 
C     1.8050366    5.8834397    2.7194544 
F     1.8056962    5.7170435    4.0597386 
F     2.9192916    6.5669761    2.3796693 
F     0.7403013    6.6795320    2.4161032 
H     2.6697216    5.3286255    0.2021778 
H     0.6945327    3.5486935    3.6101549 
H     4.3277423    1.6717148   -3.8949829 
H     0.5761032   -0.0005368   -5.2434726 
C     2.9371042    1.0322765   -6.1469344 
F     2.3330834    0.1412913   -6.9640673 
F     2.6339044    2.2725689   -6.6029439 
F     4.2735886    0.8730471   -6.2688253 
C    -2.3648693   -3.1457412   -0.7307802 
C    -1.4390928   -2.4737707    2.2521164 
C    -1.8009442   -3.0639732   -2.1703828 
H    -2.5457577   -3.4858515   -2.8690328 
H    -1.6236065   -2.0132686   -2.4663937 
H    -0.8655689   -3.6289274   -2.3064477 
C    -2.9466075   -2.4949616    2.5793095 
H    -3.0656406   -2.5092795    3.6777057 
H    -3.4642752   -1.6002176    2.2058196 
H    -3.4486971   -3.3914590    2.1820278 
C    -2.5259163   -4.6175749   -0.2887172 
H    -3.1424904   -5.1429108   -1.0412654 
H    -1.5722342   -5.1568394   -0.2075253 
H    -3.0515277   -4.6965827    0.6760181 
C    -3.7600390   -2.4841407   -0.7541264 
H    -4.4383357   -3.1133538   -1.3589020 
H    -4.2020874   -2.3751788    0.2463054 
H    -3.7150511   -1.4901377   -1.2248484 
C    -0.7987240   -3.7900333    2.7364705 
H    -1.0360089   -3.9155223    3.8090266 
H    -1.1924933   -4.6716239    2.2065142 
H     0.2974343   -3.7725211    2.6450407 
C    -0.7915130   -1.2826636    3.0010298 
H    -1.2866372   -0.3346896    2.7267493 
H    -0.9193830   -1.4317449    4.0890380 
H     0.2876969   -1.1945529    2.7939220 
