110
Energy =
C     0.4775552    0.3913538   -2.9803876 
C    -0.9391508    0.2613012   -2.8907343 
C    -1.7190037    1.2683232   -2.2946626 
H    -1.4184091   -0.6606114   -3.2421840 
Pd   -0.1198673    0.2486283   -0.8175419 
P    -1.4359660    0.2767078    1.1655648 
P     2.0102333   -0.3047251    0.0483688 
H     0.8647145    1.4194030   -2.9729191 
H    -1.2252655    2.2355362   -2.1156953 
C     3.0186570   -2.4007824   -5.0433896 
C     1.8439686   -2.8569917   -4.4209227 
C     1.0111331   -1.9622502   -3.7417006 
C     1.3300452   -0.5854451   -3.6806691 
C     2.5093689   -0.1384663   -4.3207303 
C     3.3473313   -1.0377271   -4.9918921 
H     3.6722366   -3.1055843   -5.5672033 
H     1.5845481   -3.9201512   -4.4558254 
H     0.1233611   -2.3395700   -3.2228296 
H     2.7652351    0.9265950   -4.2919935 
H     4.2568347   -0.6729248   -5.4800407 
C    -6.0123603    1.5320833   -2.2061595 
C    -5.2155845    2.6357923   -1.8663432 
C    -3.8206951    2.5294469   -1.9032125 
C    -3.1872485    1.3171047   -2.2694569 
C    -4.0083031    0.2228318   -2.6378646 
C    -5.4019198    0.3294111   -2.6019799 
H    -7.1038330    1.6104890   -2.1772109 
H    -5.6809181    3.5830858   -1.5759522 
H    -3.2049797    3.4008611   -1.6541561 
H    -3.5569510   -0.7193386   -2.9637026 
H    -6.0175209   -0.5292413   -2.8887039 
Fe    0.9947227   -0.7918327    3.2383580 
C     1.9970495   -1.2995675    1.5788655 
C     1.0206263   -2.3128994    1.9152017 
H     0.1840267   -2.6187017    1.2875633 
C     1.3201284   -2.8139966    3.2229272 
H     0.7419957   -3.5623982    3.7676350 
C     2.4809038   -2.1288109    3.7088817 
H     2.9453035   -2.2656431    4.6870555 
C     2.9069814   -1.1996497    2.7054866 
C    -0.6142120    0.3136039    2.7878929 
C     0.5040565    1.1723967    3.1099783 
H     0.9428382    1.9144383    2.4426115 
C     0.9364403    0.8738265    4.4422560 
H     1.7789387    1.3363871    4.9590900 
C     0.0901819   -0.1576781    4.9648793 
H     0.1770363   -0.6229511    5.9483166 
C    -0.8668531   -0.5092427    3.9566924 
H     3.7638137   -0.5298060    2.7922479 
H    -1.6345601   -1.2775852    4.0565692 
C    -2.6628127   -1.1504017    1.3436054 
C    -3.8428349   -0.4534634    2.0633381 
C    -4.1011430    0.8833752    1.3507813 
C    -2.7514753    1.6405556    1.2179949 
H    -2.2034580   -1.9232845    1.9864777 
H    -4.7395634   -1.0952008    2.0839383 
H    -3.5666550   -0.2624759    3.1152387 
H    -4.5150518    0.6980318    0.3434833 
H    -4.8468247    1.4933750    1.8888029 
H    -2.6924739    2.0859022    0.2149513 
C     3.0383416    1.1892648    0.5869197 
C     4.4810584    0.8275834    0.1561821 
C     4.4231252    0.0258166   -1.1549815 
C     3.3557411   -1.0930043   -1.0461485 
H     2.9528366    1.1771604    1.6861398 
H     5.1050429    1.7334646    0.0517360 
H     4.9547259    0.2094822    0.9405131 
H     4.1452875    0.6915574   -1.9887878 
H     5.4090337   -0.3932349   -1.4133851 
H     2.9019999   -1.2455553   -2.0370149 
C     3.8255399   -2.4907113   -0.5514919 
H     4.0263643   -2.4457626    0.5351375 
C     2.4984281    2.5751652    0.1273059 
H     1.3952197    2.5335364    0.2487271 
C    -3.0095611   -1.7841451   -0.0338118 
C    -2.5089124    2.8066220    2.2234593 
H    -1.4247997    3.0338003    2.2059524 
H    -3.1519421   -0.9545393   -0.7492812 
C     2.7193796   -3.5319130   -0.8088772 
H     2.9377337   -4.4800888   -0.2888847 
H     1.7290315   -3.1816477   -0.4714417 
H     2.6409807   -3.7392709   -1.8901619 
C     5.1225747   -2.9433487   -1.2503844 
H     5.3535365   -3.9862199   -0.9716165 
H     5.0119376   -2.9027093   -2.3498953 
H     5.9926727   -2.3278407   -0.9665989 
C     2.7821447    2.9221170   -1.3419814 
H     3.8620780    3.0630958   -1.5239510 
H     2.4245123    2.1323864   -2.0216499 
H     2.2751535    3.8628741   -1.6182819 
C     3.0363227    3.6813450    1.0546137 
H     2.6310287    4.6670520    0.7672440 
H     2.7648222    3.4947621    2.1093608 
H     4.1382838    3.7449252    0.9990753 
C    -2.9018561    2.5045039    3.6797973 
H    -2.6625879    3.3716987    4.3189881 
H    -3.9868963    2.3196868    3.7729013 
H    -2.3662663    1.6335886    4.0879441 
C    -3.2476212    4.0634068    1.7203607 
H    -2.8911346    4.3674316    0.7201783 
H    -4.3362493    3.8835497    1.6509322 
H    -3.0920044    4.9115630    2.4093635 
C    -4.3204275   -2.5899519   -0.0029812 
H    -4.4815510   -3.0858574   -0.9762132 
H    -4.2908906   -3.3763653    0.7734828 
H    -5.1978146   -1.9494908    0.1867212 
C    -1.8613791   -2.6594523   -0.5621189 
H    -2.0961607   -3.0471611   -1.5691955 
H    -0.9167621   -2.0814964   -0.6404847 
H    -1.6844925   -3.5291212    0.0975951 
