132
Energy =
C     0.8819027   -0.5726935   -3.3297473 
C     1.0278218    0.7919320   -2.9395048 
C     1.9468839    1.1783056   -1.9375318 
H     0.3198405    1.5386513   -3.3207617 
Pd    0.4278692   -0.3159671   -1.1313383 
P     0.1615054    0.6941107    0.9530648 
P    -0.6335236   -2.3122690   -0.5428470 
H     1.7653024   -1.2199301   -3.2258463 
H     2.7885419    0.4959672   -1.7409637 
C    -2.0481295   -2.0147922   -6.1474381 
C    -2.2190638   -0.7573938   -5.5433711 
C    -1.2719373   -0.2740659   -4.6358829 
C    -0.1202363   -1.0304216   -4.3117146 
C     0.0510621   -2.2791559   -4.9530294 
C    -0.9043947   -2.7708393   -5.8521778 
H    -2.7959417   -2.3950762   -6.8505700 
H    -3.1033221   -0.1544806   -5.7753222 
H    -1.4424268    0.6960377   -4.1567518 
H     0.9533972   -2.8657952   -4.7494953 
H    -0.7486841   -3.7432470   -6.3311707 
C     2.6145764    5.1526254   -0.4316865 
C     3.6290258    4.1849669   -0.3873188 
C     3.3917489    2.8943603   -0.8723746 
C     2.1422249    2.5495134   -1.4347777 
C     1.1322578    3.5378305   -1.4835457 
C     1.3639263    4.8210065   -0.9789282 
H     2.7959644    6.1599689   -0.0425249 
H     4.6073053    4.4328608    0.0363657 
H     4.1807830    2.1370744   -0.8142488 
H     0.1483142    3.2967273   -1.8952028 
H     0.5626407    5.5668762   -1.0128264 
Fe    0.0497741   -1.1662605    3.9954144 
C    -0.5931111   -0.3343502    2.2588885 
C    -0.7392142   -1.7849927    2.2319777 
C    -1.6034631   -2.1426038    3.3311692 
C    -1.9789271   -0.9523474    4.0321483 
C    -1.3547223    0.1600769    3.3867816 
C     2.0414799   -1.6070994    4.0978361 
C     1.7901578   -0.3015007    4.6445470 
C     0.8677516   -0.4487481    5.7309009 
C     0.5451255   -1.8416738    5.8575340 
C     1.2751293   -2.5589566    4.8504531 
C    -1.0417043    2.0583876    0.6964769 
C    -1.7532694    2.0450641   -0.5215183 
C    -2.7077890    3.0226435   -0.8330354 
C    -2.9396012    4.0481910    0.1116826 
C    -2.2760774    4.0729445    1.3613774 
C    -1.3364644    3.0642432    1.6368275 
C     1.7463939    1.3311164    1.6135984 
C     1.9437335    2.5851128    2.2089816 
C     3.1973476    2.9521977    2.7346802 
C     4.2620610    2.0300227    2.6329657 
C     4.0943150    0.7605651    2.0276120 
C     2.8317809    0.4359741    1.5153441 
C    -0.1504823   -2.7602855    1.2335644 
H    -1.9011294   -3.1536749    3.6099290 
H    -2.5985900   -0.9074136    4.9294767 
H    -1.4453547    1.2024226    3.6905533 
H     2.7019090   -1.8336573    3.2597469 
H     2.2119812    0.6372440    4.2832925 
H     0.4574437    0.3608717    6.3373471 
H    -0.1515513   -2.2765197    6.5766433 
H     1.2434535   -3.6375193    4.6842656 
H    -1.5456678    1.2478720   -1.2499321 
H    -0.8450367    3.0758924    2.6144446 
H     1.1300141    3.3116427    2.2597717 
H     2.6856311   -0.5379430    1.0301718 
H     0.9445981   -2.6071825    1.2064343 
H    -0.0591383   -3.1912413   -2.6415091 
H    -2.8092770   -3.3996818   -0.5143853 
C    -4.3268196   -1.9855314   -2.4721892 
C    -2.8147617   -2.0074118   -2.1996706 
C    -2.4907270   -2.3602411   -0.7289834 
C    -3.2313602   -1.4016300    0.2309510 
C    -4.7441325   -1.3773799   -0.0557934 
C    -5.0481940   -1.0212667   -1.5187081 
H    -4.7373602   -3.0068511   -2.3477884 
H    -4.4987162   -1.7018559   -3.5261901 
H    -2.3953266   -1.0042317   -2.4040676 
H    -2.3135550   -2.6958409   -2.9026543 
H    -3.0589401   -1.6912072    1.2783047 
H    -2.8187847   -0.3815196    0.1146363 
H    -5.1728248   -2.3729567    0.1740640 
H    -5.2297046   -0.6594870    0.6294421 
H    -4.7078518    0.0141658   -1.7201415 
H    -6.1374835   -1.0381484   -1.7014811 
C    -0.1339788   -5.9028929   -2.8193985 
C    -0.7564694   -4.9994832   -1.7363423 
C     0.0279398   -3.6715427   -1.6486005 
C     1.5343262   -3.9055101   -1.3885270 
C     2.1418363   -4.8378928   -2.4525115 
C     1.3590469   -6.1574348   -2.5547544 
H    -0.2564618   -5.4160733   -3.8071118 
H    -0.6866299   -6.8581515   -2.8666274 
H    -0.7415463   -5.5287090   -0.7676983 
H    -1.8158790   -4.8062801   -1.9789586 
H     2.0681799   -2.9348402   -1.3715712 
H     1.6775483   -4.3619549   -0.3905368 
H     2.1273505   -4.3265132   -3.4348050 
H     3.2031366   -5.0325671   -2.2153495 
H     1.4701272   -6.7206434   -1.6068182 
H     1.7869292   -6.7935394   -3.3499207 
C    -0.4328986   -4.2193278    1.6281052 
H    -0.1187926   -4.3805872    2.6735144 
H    -1.5052866   -4.4650293    1.5500211 
H     0.1300529   -4.9237825    0.9989562 
C    -3.4855144    2.9913549   -2.1272461 
H    -3.2546909    3.8675918   -2.7597040 
H    -3.2546576    2.0803280   -2.7036488 
H    -4.5708585    3.0204126   -1.9300818 
C    -2.5961173    5.1419328    2.3801575 
H    -3.6494749    5.4549427    2.2942866 
H    -2.4125110    4.7792961    3.4049505 
H    -1.9682642    6.0406210    2.2311415 
O    -3.9029405    4.9866433   -0.1792325 
C    -3.4265312    6.2462602   -0.6741425 
H    -4.3191591    6.8524539   -0.8878898 
H    -2.8002154    6.7681124    0.0735897 
H    -2.8402313    6.1118598   -1.6036018 
C     3.3965132    4.2962342    3.3931805 
H     4.1800231    4.2395455    4.1659734 
H     3.7041847    5.0582326    2.6523208 
H     2.4615556    4.6513981    3.8568408 
C     5.2540555   -0.2043241    1.9727953 
H     6.0948501    0.2053749    1.3848937 
H     5.6433607   -0.3984095    2.9872522 
H     4.9526656   -1.1623664    1.5183330 
O     5.4925071    2.3191339    3.1814377 
C     6.3593251    3.1433197    2.3913936 
H     7.3163570    3.1938626    2.9314444 
H     6.5245349    2.7027601    1.3892129 
H     5.9545003    4.1660574    2.2725574 
