110
Energy =
C     1.2023033    2.7981235    0.6601276 
C     0.4221756    2.9605157   -0.5023281 
C    -0.9955714    2.8398535   -0.4836622 
H     0.9276396    3.1215483   -1.4626843 
Pd   -0.0003896    0.8576092    0.0899423 
P    -1.9394318   -0.5092634   -0.1367115 
P     1.6436129   -0.7607493    0.6012666 
H     0.6859117    2.8747238    1.6278215 
H    -1.5041224    3.0533030    0.4657162 
C     5.4603779    3.3408369    0.9481207 
C     4.6332501    3.5425415    2.0629577 
C     3.2486609    3.3675416    1.9498500 
C     2.6596232    2.9884382    0.7210955 
C     3.5052050    2.8174515   -0.4005713 
C     4.8881990    2.9860745   -0.2858606 
H     6.5441476    3.4678393    1.0356191 
H     5.0671134    3.8367615    3.0239693 
H     2.6078922    3.5343755    2.8220681 
H     3.0803437    2.5262878   -1.3642760 
H     5.5267327    2.8385449   -1.1630715 
C    -3.4118649    3.4233658   -4.0008847 
C    -2.1106115    2.9074585   -4.1234098 
C    -1.3179531    2.7147138   -2.9877335 
C    -1.8058397    3.0409379   -1.6993576 
C    -3.1112108    3.5741200   -1.5944500 
C    -3.9068730    3.7598603   -2.7318818 
H    -4.0337323    3.5654411   -4.8904556 
H    -1.7181599    2.6421212   -5.1105604 
H    -0.3238907    2.2686988   -3.0946415 
H    -3.4991085    3.8564230   -0.6095432 
H    -4.9146166    4.1750363   -2.6278775 
Fe   -0.5032382   -3.3825060    1.0122827 
C     1.0779026   -2.2455772    1.4934869 
C     1.4841843   -3.6284396    1.3394306 
H     2.2100225   -4.0182145    0.6242689 
C     0.7391609   -4.4220316    2.2721960 
H     0.7971795   -5.5075918    2.3702647 
C    -0.1194914   -3.5517342    3.0192997 
H    -0.8300660   -3.8556930    3.7898005 
C     0.0879338   -2.2156608    2.5489125 
C    -1.7950766   -2.3333745   -0.1285628 
C    -2.5048161   -3.2677210    0.7274927 
H    -3.2392467   -3.0186598    1.4942153 
C    -2.0522822   -4.5934301    0.4272255 
H    -2.3830275   -5.5056683    0.9268768 
C    -1.0657888   -4.5060446   -0.6062120 
H    -0.5118304   -5.3403674   -1.0398479 
C    -0.8998677   -3.1253416   -0.9489374 
H    -0.4205981   -1.3217888    2.9089773 
H    -0.2091350   -2.7419099   -1.6976048 
C    -3.0929495   -0.0632314   -1.5826079 
C    -4.4648182    0.2238374   -0.9320997 
C    -4.2205741    0.7969133    0.4696937 
C    -3.2766899   -0.1953139    1.1734953 
H    -2.6909546    0.8990952   -1.9385983 
H    -5.0408449    0.9212147   -1.5637576 
H    -5.0513196   -0.7110064   -0.8471507 
H    -3.7588906    1.7978021    0.4010789 
H    -5.1626984    0.9074054    1.0333201 
H    -3.8200664   -1.1569937    1.1908188 
C     3.2053241   -0.2981162    1.5668582 
C     4.3128888   -1.1219889    0.8754874 
C     4.0595049   -1.0585403   -0.6360594 
C     2.5893605   -1.4630786   -0.8895510 
H     3.3795197    0.7686529    1.3420290 
H     5.3102631   -0.7248042    1.1304300 
H     4.2764779   -2.1711754    1.2286591 
H     4.2344003   -0.0250965   -0.9860836 
H     4.7460889   -1.7161182   -1.1969203 
H     2.5077850   -2.5540279   -0.7414524 
C     2.0183395   -1.1726894   -2.2993790 
H     0.9426153   -1.4191736   -2.2548522 
C     3.0880228   -0.4730009    3.0983691 
H     2.8162032   -1.5285495    3.2939769 
C    -3.0789625   -1.0438316   -2.7766567 
H    -3.2175690   -2.0712295   -2.3866936 
C    -2.8598553    0.0984807    2.6332180 
H    -2.2568250   -0.7699790    2.9567277 
C     1.9921608    0.4279221    3.6961767 
H     1.7938525    0.1607270    4.7481835 
H     2.3034140    1.4851752    3.6688134 
H     1.0415497    0.3512285    3.1402683 
C     4.4366075   -0.1960876    3.7912302 
H     4.3252425   -0.2663425    4.8873213 
H     5.2133032   -0.9180895    3.4886311 
H     4.7981983    0.8206333    3.5500098 
C     2.1036805    0.2940591   -2.7362074 
H     1.5829177    0.4372369   -3.6985765 
H     1.6120081    0.9425535   -1.9870499 
H     3.1476112    0.6285899   -2.8661125 
C     2.6609841   -2.1042488   -3.3436461 
H     2.1839760   -1.9687689   -4.3298933 
H     3.7385431   -1.8920800   -3.4623325 
H     2.5536045   -3.1656941   -3.0563924 
C    -1.7308109   -0.9661672   -3.5146695 
H    -1.6154614   -1.7955618   -4.2331624 
H    -1.6529329   -0.0150158   -4.0693228 
H    -0.8791922   -0.9979884   -2.8133453 
C    -4.2299977   -0.7471569   -3.7578832 
H    -4.1578991   -1.4083355   -4.6390786 
H    -5.2200282   -0.9093481   -3.3001494 
H    -4.1800821    0.2991892   -4.1116961 
C    -4.1009094    0.1407607    3.5478479 
H    -3.7959197    0.1937540    4.6071684 
H    -4.7272991    1.0255795    3.3378535 
H    -4.7287154   -0.7592508    3.4197471 
C    -2.0030309    1.3575684    2.8144893 
H    -1.6931518    1.4722111    3.8673045 
H    -1.0833557    1.2984943    2.1955257 
H    -2.5543748    2.2702171    2.5244890 
