132
Energy =
C     1.6871333   -2.8829422   -0.2677745 
C     1.5365014   -2.9962656    1.1381611 
C     0.2733668   -3.3129296    1.7109067 
H     2.3711637   -2.6970405    1.7854714 
Pd    0.1554603   -1.4112969    0.4988035 
P    -1.6685013   -0.4166775    1.5981184 
P     0.3905618    0.1867869   -1.1796662 
H     0.9799210   -3.4475245   -0.8948910 
H    -0.4305546   -3.8696770    1.0728615 
C     5.3607850   -1.8717100   -2.2626527 
C     4.4813009   -2.8137360   -2.8152640 
C     3.2819133   -3.1225041   -2.1624437 
C     2.9470274   -2.5068541   -0.9379392 
C     3.8387804   -1.5545911   -0.3949259 
C     5.0319599   -1.2383482   -1.0520476 
H     6.2947475   -1.6230234   -2.7770991 
H     4.7188446   -3.3001663   -3.7668960 
H     2.5932156   -3.8498621   -2.6048609 
H     3.5810438   -1.0397880    0.5366080 
H     5.7060807   -0.4898229   -0.6225406 
C    -0.6804330   -3.5289634    5.9090203 
C    -1.5388061   -4.0811174    4.9465277 
C    -1.1975681   -4.0280435    3.5895328 
C    -0.0062007   -3.3985669    3.1558271 
C     0.8572440   -2.8653530    4.1415468 
C     0.5260444   -2.9368399    5.4988565 
H    -0.9388759   -3.5741515    6.9717439 
H    -2.4707325   -4.5675221    5.2532400 
H    -1.8587200   -4.4913668    2.8484362 
H     1.7932385   -2.3799172    3.8473833 
H     1.2129658   -2.5249357    6.2455451 
Fe   -2.1862526    2.6204347   -2.0136217 
C    -1.2494681    0.8428937   -1.6397808 
C    -2.3677781    1.0594427   -0.7302758 
C    -3.5523319    1.1967467   -1.5446433 
C    -3.1819485    1.0934186   -2.9244337 
C    -1.7687012    0.8882661   -2.9910137 
C    -2.3958254    4.3410501   -0.9190482 
C    -1.0584755    4.2260878   -1.4189272 
C    -1.1257654    4.1532362   -2.8539718 
C    -2.5072404    4.2224492   -3.2355858 
C    -3.2932958    4.3347324   -2.0395989 
C     1.0124714   -0.5243177   -2.7523311 
C     2.1998956   -0.1032646   -3.3705748 
C     2.6597938   -0.7127821   -4.5530536 
C     1.9065030   -1.7770421   -5.0917886 
C     0.7239065   -2.2472139   -4.4692878 
C     0.2920613   -1.6075490   -3.3001394 
C     1.5101084    1.5659209   -0.7599569 
C     1.7328575    2.6142022   -1.6715956 
C     2.6019888    3.6718123   -1.3630804 
C     3.2421625    3.6618897   -0.0985643 
C     3.0552408    2.6088950    0.8267904 
C     2.1863311    1.5647666    0.4707545 
C    -2.3225927    1.1647289    0.7832829 
H    -4.5624834    1.3932684   -1.1842238 
H    -3.8570953    1.1949406   -3.7760289 
H    -1.1728191    0.7650621   -3.8960505 
H    -2.6794787    4.4151962    0.1323708 
H    -0.1516582    4.1871509   -0.8144627 
H    -0.2815306    4.0694994   -3.5398732 
H    -2.8946937    4.1741162   -4.2548965 
H    -4.3827557    4.3839510   -1.9905896 
H     2.8067943    0.6872935   -2.9199831 
H    -0.6205609   -1.9621190   -2.8042581 
H     1.2199543    2.6057304   -2.6382349 
H     2.0324005    0.7315258    1.1633565 
H    -1.5279639    1.8903369    1.0460850 
H    -1.1414956   -0.9799477    3.8417802 
H    -2.4537076   -2.5840793    1.9638984 
C    -4.5506384   -3.1705652    0.2960751 
C    -3.6284860   -1.9389057    0.2835095 
C    -3.0364684   -1.6859670    1.6889465 
C    -4.1313053   -1.5402483    2.7671633 
C    -5.0550091   -2.7750500    2.7512421 
C    -5.6535812   -3.0276555    1.3579207 
H    -3.9463509   -4.0744327    0.5122545 
H    -4.9920320   -3.3169457   -0.7060966 
H    -4.2058028   -1.0549016   -0.0438696 
H    -2.8118009   -2.0669282   -0.4531011 
H    -3.6681395   -1.4436711    3.7642441 
H    -4.7314596   -0.6294848    2.5938018 
H    -4.4706363   -3.6628977    3.0648311 
H    -5.8562200   -2.6458064    3.5007560 
H    -6.3132315   -2.1801329    1.0846264 
H    -6.2907597   -3.9297738    1.3736215 
C    -1.5068884    1.1201798    5.6121707 
C    -2.0520518    0.9592910    4.1800691 
C    -1.1492908    0.0160112    3.3543981 
C     0.3017122    0.5532570    3.3444978 
C     0.8487872    0.7929449    4.7626279 
C    -0.0795690    1.6878283    5.5970144 
H    -1.5108759    0.1339090    6.1163929 
H    -2.1809214    1.7777567    6.1898045 
H    -2.0676480    1.9566594    3.7011982 
H    -3.0913212    0.5943455    4.2094678 
H     0.9494459   -0.1633903    2.8048510 
H     0.3339623    1.5010467    2.7712573 
H     0.9565949   -0.1833090    5.2694392 
H     1.8605239    1.2331199    4.6947107 
H    -0.0990205    2.7081575    5.1645839 
H     0.3092336    1.7879105    6.6260628 
C    -3.6729950    1.6644714    1.3317232 
H    -3.9268453    2.6211648    0.8447912 
H    -4.4822708    0.9520843    1.1073886 
H    -3.6536164    1.8259699    2.4163027 
C     3.9506775   -0.2721223   -5.2009659 
H     4.4529685   -1.1257896   -5.6847271 
H     3.7694513    0.4926079   -5.9798833 
H     4.6319990    0.1676044   -4.4547698 
C    -0.0082312   -3.4331472   -5.0508635 
H    -0.8266185   -3.7599789   -4.3889600 
H    -0.4441035   -3.1931110   -6.0376428 
H     0.6852029   -4.2770545   -5.2099390 
O     2.3759553   -2.4687035   -6.1881646 
C     2.0749050   -1.9037309   -7.4715482 
H     2.4942909   -2.5931593   -8.2193992 
H     0.9819462   -1.8163950   -7.6225675 
H     2.5351666   -0.9053819   -7.5949362 
C     2.8506748    4.7946266   -2.3428647 
H     2.7059914    4.4519109   -3.3807033 
H     2.1501626    5.6343183   -2.1727675 
H     3.8739453    5.1880518   -2.2323811 
C     3.7811825    2.6155874    2.1517366 
H     4.8042464    3.0083860    2.0340945 
H     3.2664541    3.2637743    2.8861697 
H     3.8288529    1.6016253    2.5820143 
O     4.1344349    4.6631261    0.2125095 
C     3.5742517    5.8359248    0.8195403 
H     4.4142155    6.5231356    0.9993514 
H     2.8372243    6.3229634    0.1531391 
H     3.0842700    5.5929099    1.7818180 
