112
Energy =
C     2.3131628    2.2527647   -0.3181599 
C     1.4919706    2.5278545   -1.4387147 
C     0.1862743    3.0664202   -1.2911865 
H     1.8458339    2.2346232   -2.4348824 
Pd    0.4140469    1.0102136   -0.2415525 
P    -1.7955863    0.2564938    0.0834727 
P     1.4215308   -0.8708434    0.7343110 
H     2.0762940    2.7843495    0.6161185 
H    -0.0167191    3.6143057   -0.3606683 
C     6.4067493    0.9523266   -0.5203003 
C     5.9596039    1.7630232    0.5329298 
C     4.6169078    2.1529340    0.5985653 
C     3.6995549    1.7595584   -0.4005840 
C     4.1638391    0.9431274   -1.4569594 
C     5.5010330    0.5386714   -1.5118775 
H     7.4551483    0.6403110   -0.5689140 
H     6.6559083    2.0847386    1.3138381 
H     4.2701715    2.7726000    1.4323084 
H     3.4720321    0.6110746   -2.2360304 
H     5.8399049   -0.1012115   -2.3332663 
C    -2.2567006    4.3461694   -4.6056740 
C    -2.5110188    4.8085250   -3.3065540 
C    -1.7257015    4.3647125   -2.2348550 
C    -0.6701335    3.4438175   -2.4321510 
C    -0.4364341    2.9792306   -3.7497667 
C    -1.2146908    3.4282637   -4.8203664 
H    -2.8641290    4.6966816   -5.4460844 
H    -3.3151622    5.5296799   -3.1270942 
H    -1.9121425    4.7610569   -1.2316873 
H     0.3648303    2.2583582   -3.9437069 
H    -1.0099833    3.0590842   -5.8305288 
Fe   -0.3225764   -3.7058370    2.2809368 
C     0.2929868   -1.8024276    1.8296914 
C    -1.1376934   -1.9582015    1.6039863 
C    -1.7298314   -2.3566970    2.8548542 
C    -0.6964756   -2.4591019    3.8431115 
C     0.5501633   -2.1339732    3.2181048 
C     0.1524162   -5.4581296    3.2132300 
C    -1.1904999   -5.5035586    2.7093805 
C    -1.1384935   -5.3091903    1.2893628 
C     0.2346197   -5.1362932    0.9140989 
C     1.0334895   -5.2299965    2.1055617 
C     2.8171899   -0.4744385    1.8635178 
C     2.5354934    0.3998611    2.9365971 
C     3.5336923    0.7337141    3.8586631 
C     4.8279762    0.2066447    3.7149142 
C     5.1193024   -0.6350964    2.6339388 
C     4.1229559   -0.9712129    1.7042030 
C     2.0918726   -2.0009120   -0.5455093 
C     1.9641530   -1.6642033   -1.9070281 
C     2.4683641   -2.5181294   -2.8977289 
C     3.1087326   -3.7120450   -2.5332304 
C     3.2356504   -4.0557915   -1.1774586 
C     2.7241396   -3.2072476   -0.1867671 
C    -1.8995525   -1.6166822    0.3490769 
H    -2.7893197   -2.5734533    3.0081280 
H    -0.8279627   -2.7765472    4.8791464 
H     1.5289935   -2.1227006    3.6987782 
H     0.4482158   -5.5530504    4.2596380 
H    -2.0948752   -5.6375363    3.3058549 
H    -1.9995778   -5.2888320    0.6188309 
H     0.6082261   -4.9586255   -0.0951390 
H     2.1200528   -5.1526699    2.1681923 
H     1.5270111    0.8094198    3.0535722 
H     4.3788249   -1.5998182    0.8474596 
H     1.4501043   -0.7340524   -2.1815316 
H     2.8053257   -3.4804261    0.8687472 
H     3.3012115    1.4050588    4.6919959 
H     6.1329265   -1.0251773    2.4976261 
H     2.3592995   -2.2526313   -3.9543385 
H     3.7287462   -4.9907542   -0.8915086 
H     5.6091115    0.4646290    4.4374194 
H     3.5047656   -4.3792199   -3.3057934 
H    -2.9661544   -1.8228673    0.5497712 
C    -1.4663950   -2.4027275   -0.8997746 
H    -0.5114168   -2.0385900   -1.3093218 
H    -1.3313719   -3.4597830   -0.6283586 
H    -2.2263473   -2.3404799   -1.6939035 
H    -3.1348520    1.7311317   -1.1956304 
H    -3.2705388    0.0400513    1.9706632 
C    -5.3721471    0.4885762   -2.1946518 
C    -4.3974355   -0.0366966   -1.1226582 
C    -3.0136170    0.6321169   -1.2826223 
C    -2.4467784    0.3645893   -2.6944561 
C    -3.4161625    0.9054118   -3.7592447 
C    -4.8135214    0.2803118   -3.6123404 
H    -5.5467096    1.5689148   -2.0213770 
H    -6.3507114   -0.0123784   -2.0849765 
H    -4.2862012   -1.1316492   -1.2426778 
H    -4.8137651    0.1315541   -0.1131745 
H    -1.4521685    0.8300296   -2.7946659 
H    -2.3110455   -0.7201983   -2.8472696 
H    -3.4866818    2.0039434   -3.6530194 
H    -3.0076171    0.7138809   -4.7676492 
H    -4.7528843   -0.8061701   -3.8221436 
H    -5.5053639    0.7071762   -4.3601936 
C    -2.6540152    3.4106730    1.2792072 
C    -3.4920818    2.1474958    1.5147130 
C    -2.6167676    0.8844443    1.6820825 
C    -1.5948551    1.1201425    2.8245178 
C    -0.7686194    2.4019623    2.6365523 
C    -1.6474154    3.6416319    2.4165651 
H    -3.3150925    4.2874915    1.1608181 
H    -2.1081541    3.2936131    0.3250880 
H    -4.2404594    2.0217892    0.7147156 
H    -4.0682508    2.2623166    2.4538086 
H    -2.1762646    1.1970805    3.7637864 
H    -0.9301480    0.2497094    2.9448010 
H    -0.1015606    2.5475174    3.5053285 
H    -0.1036191    2.2609543    1.7528296 
H    -1.0185145    4.5254226    2.2029691 
H    -2.1998455    3.8680250    3.3493281 
