112
Energy =
C     1.3929987    0.6188987   -3.0291820 
C     0.5946024    1.7764042   -2.8395012 
C     0.9583403    2.7648079   -1.8887350 
H    -0.3843607    1.8433354   -3.3298726 
Pd    0.6595836    0.7456024   -0.8842819 
P     0.3145035    1.5646850    1.2607941 
P     0.5456986   -1.5285454   -0.3385219 
H     2.4502385    0.7019149   -2.7367615 
H     2.0227352    2.8325844   -1.6175896 
C     0.6341573   -2.6641772   -5.7109604 
C     1.8476023   -2.5697400   -5.0115853 
C     2.0841881   -1.4838879   -4.1608835 
C     1.1080513   -0.4765595   -3.9724675 
C    -0.1011919   -0.5768828   -4.6980557 
C    -0.3313398   -1.6557868   -5.5591308 
H     0.4474213   -3.5091479   -6.3812665 
H     2.6158443   -3.3397183   -5.1375215 
H     3.0383506   -1.4081095   -3.6280728 
H    -0.8746412    0.1896375   -4.5878708 
H    -1.2723397   -1.7120956   -6.1160663 
C    -1.2577137    6.3416783   -0.9878826 
C    -1.9156998    5.2501468   -1.5800358 
C    -1.2120416    4.0805169   -1.8788777 
C     0.1686135    3.9718987   -1.5900249 
C     0.8172805    5.0795979   -0.9997529 
C     0.1122459    6.2526258   -0.7035586 
H    -1.8118080    7.2566876   -0.7547062 
H    -2.9855141    5.3119771   -1.8048587 
H    -1.7458122    3.2380404   -2.3313131 
H     1.8870803    5.0146506   -0.7743381 
H     0.6365562    7.0987215   -0.2471589 
Fe   -1.6885359   -1.8353568    2.5052765 
C     0.0198124   -1.9000247    1.3647104 
C     0.1946625   -1.0388022    2.5373377 
C    -0.0502482   -1.8562686    3.7023810 
C    -0.3799138   -3.1822510    3.2841624 
C    -0.3572946   -3.2133263    1.8571260 
C    -3.4416316   -2.6951613    3.0814052 
C    -3.1851009   -1.5109602    3.8528879 
C    -3.0940857   -0.4015511    2.9491634 
C    -3.2922999   -0.9008033    1.6211739 
C    -3.5048920   -2.3189507    1.6984867 
C     0.7768886    0.3564530    2.6363930 
H    -0.0189486   -1.5185154    4.7380210 
H    -0.6472888   -4.0131444    3.9392609 
H    -0.5713327   -4.0892482    1.2479818 
H    -3.5425727   -3.7076030    3.4767276 
H    -3.0574835   -1.4697560    4.9363011 
H    -2.9084531    0.6377837    3.2181846 
H    -3.2877418   -0.2988900    0.7146960 
H    -3.6830491   -2.9934195    0.8591105 
H     2.0157834   -2.7472905   -1.7134588 
C     3.0190422   -3.4564695    1.5763498 
C     2.4487630   -3.7262864    0.1716861 
C     2.1768323   -2.4475731   -0.6610044 
C     3.4081635   -1.5117264   -0.6253395 
C     3.9153696   -1.2342917    0.7957693 
C     4.2506049   -2.5397884    1.5307006 
H     3.2711759   -4.4205178    2.0528715 
H     2.2465705   -2.9870717    2.2106694 
H     1.5445683   -4.3540590    0.2398012 
H     3.1885574   -4.3191064   -0.4020457 
H     4.2163926   -2.0023673   -1.2028607 
H     3.1776638   -0.5638630   -1.1431835 
H     4.7923490   -0.5633227    0.7577848 
H     3.1274010   -0.6958108    1.3591526 
H     4.6071800   -2.3275425    2.5544291 
H     5.0813245   -3.0491967    1.0038459 
H    -0.0784348   -2.1676048   -2.5112580 
C    -2.8873901   -2.0510323   -2.7434588 
C    -1.9466790   -1.5212784   -1.6462005 
C    -0.6323524   -2.3229096   -1.5649472 
C    -0.9078990   -3.8335479   -1.4282015 
C    -1.7920077   -4.3263971   -2.5896705 
C    -3.1258347   -3.5640122   -2.6197822 
H    -2.4389366   -1.8410797   -3.7312967 
H    -3.8455958   -1.5014381   -2.7029291 
H    -2.4426892   -1.5775139   -0.6643519 
H    -1.7142819   -0.4525931   -1.8249073 
H     0.0367885   -4.4042814   -1.3991276 
H    -1.4443139   -4.0239945   -0.4816611 
H    -1.2551550   -4.1761644   -3.5466169 
H    -1.9667983   -5.4123226   -2.4856406 
H    -3.6873749   -3.7770311   -1.6879161 
H    -3.7567834   -3.9193821   -3.4538880 
H     1.8620214    0.2587449    2.4249493 
C     0.6366843    0.9641797    4.0426095 
H     1.2188274    0.3728440    4.7689562 
H     1.0296908    1.9939341    4.0702362 
H    -0.4167145    0.9673236    4.3674385 
C     3.5525661    4.8427671    1.9774507 
C     3.8941098    3.5563067    1.5270888 
C     2.8955422    2.5963571    1.3259596 
C     1.5387836    2.9053947    1.5775120 
C     1.2028394    4.2050258    2.0007530 
C     2.2086167    5.1626551    2.2082937 
H     4.3329473    5.5938064    2.1371202 
H     4.9405147    3.3011719    1.3300556 
H     3.1719335    1.6007644    0.9587951 
H     0.1577966    4.4890613    2.1450788 
H     1.9312890    6.1693420    2.5376413 
C    -3.9483443    3.3289257    1.8390436 
C    -3.0119600    3.4778421    2.8747228 
C    -1.7197378    2.9524568    2.7418028 
C    -1.3492037    2.2664744    1.5618737 
C    -2.2958455    2.1306489    0.5273903 
C    -3.5877274    2.6550905    0.6644795 
H    -4.9568579    3.7402348    1.9494752 
H    -3.2887132    4.0054296    3.7932465 
H    -1.0078446    3.0819053    3.5600259 
H    -2.0056537    1.6016295   -0.3875145 
H    -4.3116839    2.5385852   -0.1485460 
