132
Energy =
C     1.6346491   -2.7509205   -0.3196502 
C     1.5407183   -2.9505918    1.0873653 
C     0.3064921   -3.2975030    1.6876182 
H     2.4061390   -2.7041454    1.7159979 
Pd    0.1921393   -1.2975253    0.5564293 
P    -1.5061922   -0.1082116    1.6971403 
P     0.3076963    0.2039929   -1.2327383 
H     0.9282346   -3.3085126   -0.9531992 
H    -0.4536256   -3.7424625    1.0277295 
C     5.2796235   -1.6109387   -2.3083700 
C     4.9265501   -0.9960386   -1.0957165 
C     3.7450498   -1.3601168   -0.4419184 
C     2.8840806   -2.3354634   -0.9931779 
C     3.2413761   -2.9320231   -2.2204952 
C     4.4344197   -2.5819529   -2.8642678 
H     6.2072854   -1.3302839   -2.8179486 
H     5.5731336   -0.2270063   -0.6603261 
H     3.4689229   -0.8629015    0.4939694 
H     2.5768607   -3.6780996   -2.6689689 
H     4.7010416   -3.0653658   -3.8094319 
C    -0.4397900   -4.0680665    5.8537099 
C    -1.3974169   -4.3870880    4.8787586 
C    -1.1321741   -4.1381995    3.5270897 
C     0.0897505   -3.5528078    3.1195631 
C     1.0496565   -3.2468902    4.1134504 
C     0.7872391   -3.5052932    5.4626886 
H    -0.6429011   -4.2634799    6.9114292 
H    -2.3516918   -4.8364346    5.1724993 
H    -1.8800604   -4.3963106    2.7684256 
H     2.0050618   -2.7917963    3.8335635 
H     1.5421322   -3.2621349    6.2174850 
Fe   -2.3255977    2.5153926   -2.2033493 
C    -1.3775612    0.8048388   -1.6003492 
C    -2.2692531    1.2978792   -0.5652490 
C    -3.5952771    1.3569991   -1.1233350 
C    -3.5328291    0.9064391   -2.4849205 
C    -2.1710214    0.5779346   -2.7893048 
C    -2.6255708    4.4790409   -1.6937724 
C    -1.2479807    4.2487135   -2.0175772 
C    -1.1906150    3.7589002   -3.3690570 
C    -2.5302982    3.6809304   -3.8715015 
C    -3.4185295    4.1223533   -2.8352017 
C     0.8811321   -0.5041967   -2.8185379 
C     0.1592211   -1.6052897   -3.3277281 
C     0.5237574   -2.2130652   -4.5361633 
C     1.6472324   -1.7011823   -5.2314224 
C     2.3954413   -0.6108024   -4.7384701 
C     2.0036734   -0.0328132   -3.5164505 
C     1.3810290    1.6214567   -0.8103757 
C     1.6246446    2.6770072   -1.7065347 
C     2.4396074    3.7628259   -1.3479102 
C     2.9991988    3.7763811   -0.0464188 
C     2.7891660    2.7187379    0.8693413 
C     1.9800152    1.6470207    0.4625049 
C    -1.8464630    1.5653304    0.8528887 
H    -4.4902328    1.7174342   -0.6133940 
H    -4.3691056    0.8713680   -3.1858092 
H    -1.7902241    0.2279627   -3.7493792 
H    -3.0095490    4.8561798   -0.7444674 
H    -0.3985778    4.4085580   -1.3521089 
H    -0.2938312    3.4891799   -3.9284757 
H    -2.8241145    3.3213652   -4.8593441 
H    -4.5079829    4.1566275   -2.8951465 
H    -0.7073396   -1.9923436   -2.7768120 
H     2.5998655    0.7905172   -3.1128159 
H     1.1769767    2.6525524   -2.7029346 
H     1.8034344    0.8089288    1.1483062 
H    -0.8313697    2.0048065    0.8184949 
H    -1.9332727    1.2275091    3.6718568 
H    -2.7399715   -1.9544222    2.4256716 
C    -4.3326697   -2.9703787    0.4431900 
C    -3.2248111   -1.9081062    0.3312521 
C    -3.0327442   -1.1819372    1.6840825 
C    -4.3532518   -0.5404969    2.1570298 
C    -5.4566056   -1.6097323    2.2710438 
C    -5.6522732   -2.3557170    0.9403940 
H    -4.0079090   -3.7607229    1.1497322 
H    -4.4799383   -3.4617174   -0.5354659 
H    -3.4885691   -1.1742400   -0.4509857 
H    -2.2692104   -2.3712230    0.0161903 
H    -4.2182796   -0.0221969    3.1234251 
H    -4.6660858    0.2211719    1.4193740 
H    -5.1775640   -2.3325301    3.0632910 
H    -6.4021615   -1.1374520    2.5926831 
H    -6.0294748   -1.6450949    0.1784947 
H    -6.4229464   -3.1393751    1.0502196 
C     0.5056681    1.4418667    5.0494548 
C     0.2163089    0.9608315    3.6172980 
C    -1.2195590    0.4043228    3.4804241 
C    -1.4915854   -0.7021808    4.5180929 
C    -1.1940010   -0.2074000    5.9453452 
C     0.2406278    0.3281635    6.0743317 
H    -0.1394607    2.3134800    5.2764982 
H     1.5505933    1.7960048    5.1162144 
H     0.9285416    0.1557816    3.3443393 
H     0.3811819    1.7857805    2.8999898 
H    -2.5391160   -1.0439927    4.4580088 
H    -0.8560810   -1.5731868    4.2981543 
H    -1.9107844    0.5936237    6.2150627 
H    -1.3612876   -1.0374036    6.6550594 
H     0.9533840   -0.5019318    5.9022342 
H     0.4225164    0.6977387    7.0992677 
C    -2.7649986    2.5491795    1.5955370 
H    -2.8839174    3.4489131    0.9698198 
H    -3.7662471    2.1352672    1.7875202 
H    -2.3320764    2.8644085    2.5579983 
C    -0.2473250   -3.3766629   -5.1121368 
H    -0.5203228   -3.1805346   -6.1629617 
H     0.3613765   -4.2996052   -5.1117655 
H    -1.1642080   -3.5731503   -4.5331119 
C     3.5809204   -0.0734695   -5.5038473 
H     3.7240223    1.0014714   -5.3057514 
H     4.5127699   -0.5877539   -5.2025677 
H     3.4456999   -0.2237349   -6.5873139 
O     1.9528537   -2.2642105   -6.4515771 
C     3.0218602   -3.2181189   -6.4651117 
H     3.0534090   -3.6337561   -7.4832201 
H     3.9950248   -2.7446534   -6.2358464 
H     2.8382926   -4.0345453   -5.7401947 
C     2.7194971    4.8867861   -2.3182309 
H     2.6478868    4.5355139   -3.3606790 
H     1.9899222    5.7103296   -2.1993452 
H     3.7240869    5.3061703   -2.1471203 
C     3.4312081    2.7537462    2.2363780 
H     4.4700433    3.1167697    2.1701092 
H     2.8917171    3.4420019    2.9140244 
H     3.4240959    1.7551588    2.7029189 
O     3.8387893    4.8030278    0.3208263 
C     3.2061036    5.9741423    0.8559122 
H     4.0150409    6.6775008    1.1027189 
H     2.5267088    6.4407898    0.1177632 
H     2.6330854    5.7347860    1.7720785 
