112
Energy =
C     3.2294060    0.2251115   -0.8982210 
C     2.5507807    1.2902285   -1.5367283 
C     1.9416874    2.3280142   -0.7697501 
H     2.3813480    1.2564683   -2.6207598 
Pd    1.0409229    0.3443927   -0.2678417 
P    -1.0561801    0.8997485    0.6139498 
P     0.4799512   -1.9372437   -0.2321585 
H     3.5875065    0.4124112    0.1258068 
H     2.4251038    2.5807339    0.1855772 
C     5.3260609   -2.9839724   -2.8423097 
C     4.3702172   -2.2482657   -3.5621577 
C     3.6547778   -1.2211116   -2.9390323 
C     3.8864038   -0.9003095   -1.5806607 
C     4.8298129   -1.6699879   -0.8622087 
C     5.5458625   -2.6966413   -1.4872776 
H     5.8905796   -3.7821588   -3.3350248 
H     4.1860210   -2.4736431   -4.6177610 
H     2.9176809   -0.6583327   -3.5205126 
H     5.0121597   -1.4448130    0.1944226 
H     6.2778004   -3.2742484   -0.9141760 
C    -0.4144381    5.5024234   -2.4861636 
C    -0.4459111    4.2186893   -3.0576336 
C     0.3231243    3.1866647   -2.5114259 
C     1.1394996    3.4098446   -1.3781894 
C     1.1705364    4.7073596   -0.8231388 
C     0.4025491    5.7434292   -1.3721133 
H    -1.0194114    6.3095306   -2.9115237 
H    -1.0799138    4.0215116   -3.9284976 
H     0.2738055    2.1840188   -2.9509802 
H     1.8090820    4.9056829    0.0448012 
H     0.4446642    6.7435316   -0.9282441 
Fe    0.3676512   -0.4273331    3.4473015 
C    -1.1749258   -0.0529411    2.1616369 
C    -0.9120540   -1.4876853    2.2332784 
C    -1.0589776   -1.8773073    3.6125279 
C    -1.4144258   -0.7261177    4.3831487 
C    -1.4860899    0.3976508    3.5001639 
C     1.5080221    0.9473145    4.4388114 
C     1.6180337   -0.3461192    5.0522079 
C     2.1264465   -1.2626511    4.0711467 
C     2.3387486   -0.5311361    2.8529044 
C     1.9534392    0.8303929    3.0813267 
C    -0.8144162   -2.4506008    1.0674555 
H    -0.9207531   -2.8831515    4.0096465 
H    -1.5727773   -0.7001406    5.4627447 
H    -1.7226769    1.4177612    3.8003049 
H     1.1352335    1.8547061    4.9174552 
H     1.3417228   -0.5946737    6.0784478 
H     2.3193715   -2.3248532    4.2339509 
H     2.7381369   -0.9293066    1.9197100 
H     1.9880134    1.6333788    2.3454744 
H    -1.9992091   -0.6892851   -0.8587579 
C    -3.6686809    0.4334789   -2.6687471 
C    -2.7010157    1.1339553   -1.6967425 
C    -2.4465026    0.2427892   -0.4636817 
C    -3.7519267   -0.1604268    0.2534187 
C    -4.6894830   -0.8693276   -0.7428672 
C    -4.9726264    0.0142661   -1.9698133 
H    -3.1686990   -0.4643277   -3.0804014 
H    -3.8834002    1.0997847   -3.5238226 
H    -3.1269052    2.1063658   -1.3845628 
H    -1.7439196    1.3541143   -2.2009941 
H    -3.5306066   -0.8179154    1.1136767 
H    -4.2589918    0.7300866    0.6635393 
H    -4.2159610   -1.8154911   -1.0747628 
H    -5.6319880   -1.1449459   -0.2368610 
H    -5.5233557    0.9195208   -1.6456676 
H    -5.6310737   -0.5169724   -2.6800801 
H    -1.2669468    3.1794301    0.0057327 
C    -0.6202993    4.7723337    2.2578930 
C    -0.3596956    3.2858944    1.9578360 
C    -1.4142036    2.6956234    0.9928613 
C    -2.8615003    2.9835676    1.4590542 
C    -3.0700821    4.4809960    1.7529964 
C    -2.0482803    5.0049859    2.7717456 
H    -0.4727822    5.3591733    1.3325476 
H     0.1259394    5.1329663    2.9889357 
H    -0.3549436    2.7168708    2.9037278 
H     0.6424027    3.1591440    1.5162544 
H    -3.5763174    2.6610868    0.6849194 
H    -3.0934195    2.3961614    2.3660472 
H    -2.9693185    5.0520022    0.8090637 
H    -4.1023119    4.6403959    2.1128176 
H    -2.1880121    4.4810485    3.7387820 
H    -2.2151515    6.0790324    2.9675724 
H    -1.7515398   -2.3295270    0.4903422 
C    -0.7383560   -3.9233704    1.5087761 
H    -1.6752645   -4.1984167    2.0228426 
H    -0.6013634   -4.6006005    0.6511316 
H     0.0994346   -4.1022460    2.1995922 
C    -1.6229607   -2.6651053   -4.3363728 
C    -1.8724738   -3.5459494   -3.2723869 
C    -1.2439950   -3.3549537   -2.0338802 
C    -0.3667638   -2.2664749   -1.8411709 
C    -0.1268225   -1.3856167   -2.9161191 
C    -0.7452218   -1.5856197   -4.1575728 
H    -2.1151818   -2.8189541   -5.3020669 
H    -2.5562869   -4.3902362   -3.4074747 
H    -1.4410927   -4.0624527   -1.2232455 
H     0.5361835   -0.5271233   -2.7587259 
H    -0.5505462   -0.8912272   -4.9814115 
C     3.7381387   -5.2489946    0.0226654 
C     3.3801508   -4.5172271    1.1649286 
C     2.4085085   -3.5129339    1.0782353 
C     1.7739844   -3.2355003   -0.1518376 
C     2.1474746   -3.9650456   -1.2983765 
C     3.1240502   -4.9660541   -1.2052695 
H     4.4970579   -6.0352300    0.0892013 
H     3.8541147   -4.7313421    2.1285943 
H     2.1145447   -2.9618981    1.9745190 
H     1.6766395   -3.7566591   -2.2630599 
H     3.4076424   -5.5238780   -2.1032288 
