124
Energy =
C     1.8469907    2.6827900   -1.1139063 
C     0.6346563    3.2593020   -0.6955430 
C     0.1631896    3.1215000    0.6429512 
H     0.0013883    3.7638479   -1.4355307 
Pd    0.2868230    1.0875985   -0.3192651 
P    -0.8379988   -0.1154140    1.3532094 
P     0.7733072   -0.7696766   -1.6980515 
H     2.5497789    2.3699442   -0.3268440 
H     0.9316776    2.9815547    1.4147449 
C     3.7314120    3.2052627   -4.9463328 
C     4.4813227    2.8421120   -3.8179946 
C     3.8471836    2.6719441   -2.5817561 
C     2.4521764    2.8605966   -2.4422579 
C     1.7148557    3.2496319   -3.5855362 
C     2.3469365    3.4143356   -4.8215549 
H     4.2219781    3.3352989   -5.9162399 
H     5.5629647    2.6933874   -3.8994570 
H     4.4375140    2.4004387   -1.6999420 
H     0.6367171    3.4157472   -3.5092998 
H     1.7573464    3.7094337   -5.6956842 
C    -3.3392474    5.2041940    2.0422793 
C    -3.2560398    4.8026292    0.6981490 
C    -2.1420300    4.0916428    0.2401461 
C    -1.0694464    3.7865423    1.1110696 
C    -1.1721385    4.1896279    2.4629243 
C    -2.2958800    4.8870559    2.9246068 
H    -4.2143116    5.7570717    2.3982638 
H    -4.0717483    5.0360035    0.0061496 
H    -2.1060662    3.7658150   -0.8053912 
H    -0.3485637    3.9702893    3.1512783 
H    -2.3500545    5.1963315    3.9735910 
Fe   -1.2220681   -3.7206171    1.4879067 
C    -1.3733234   -1.7855675    0.8283608 
C    -0.6997525   -2.6276262   -0.1554540 
C    -1.6025808   -3.6981723   -0.5001908 
C    -2.8155161   -3.5371176    0.2393287 
C    -2.6768844   -2.3803459    1.0665822 
C    -0.3441804   -3.8599970    3.3420906 
C    -1.6509118   -4.4483914    3.3517833 
C    -1.6677301   -5.4977762    2.3719232 
C    -0.3713084   -5.5529785    1.7550835 
C     0.4476869   -4.5372520    2.3527834 
C     0.6642138   -2.4192085   -0.7736367 
H    -1.3928521   -4.5160200   -1.1903267 
H    -3.6782217   -4.2049140    0.2128803 
H    -3.4341396   -2.0160061    1.7575344 
H    -0.0087505   -3.0471477    3.9860489 
H    -2.4865970   -4.1474658    3.9859843 
H    -2.5223394   -6.1291668    2.1225066 
H    -0.0689999   -6.2417091    0.9638248 
H     1.4921699   -4.3311405    2.1106424 
H     1.3850896   -2.2442793    0.0422167 
C     1.1291162   -3.6479907   -1.5729136 
H     1.0181715   -4.5482943   -0.9437232 
H     0.5373069   -3.7970122   -2.4916185 
H     2.1884612   -3.5665213   -1.8570357 
H    -1.9837040    1.7481477    2.2390843 
C    -4.1148595    0.9617499    3.8616071 
C    -2.8850827    0.1665971    3.3839812 
C    -2.3587913    0.7262276    2.0401272 
C    -3.4552106    0.8660865    0.9582386 
C    -4.6897908    1.6124413    1.4925973 
C    -5.2172595    0.9863022    2.7920933 
H    -3.8068138    2.0011863    4.0898137 
H    -4.4901385    0.5250808    4.8045336 
H    -3.1548367   -0.9000773    3.2904301 
H    -2.0934816    0.2159136    4.1515202 
H    -3.0307777    1.4014094    0.0894727 
H    -3.7637351   -0.1292389    0.5933457 
H    -4.4179474    2.6654631    1.6865730 
H    -5.4746681    1.6227942    0.7147664 
H    -5.5651625   -0.0482231    2.5970141 
H    -6.0938895    1.5494101    3.1588011 
H    -0.2938468   -0.9946024    3.5143983 
C     1.5159743    0.7283509    4.7794126 
C     0.6178727    0.9776656    3.5534778 
C     0.2891527   -0.3450220    2.8340628 
C     1.5831501   -1.0800705    2.4376782 
C     2.5071887   -1.3081485    3.6470435 
C     2.8134702    0.0068047    4.3811468 
H     0.9623663    0.1157506    5.5178259 
H     1.7427717    1.6899163    5.2738199 
H     1.1531389    1.6391830    2.8477352 
H    -0.3019862    1.5075942    3.8553476 
H     1.3193262   -2.0427720    1.9691682 
H     2.1121972   -0.4742710    1.6747866 
H     2.0217290   -2.0125049    4.3506121 
H     3.4406845   -1.7959392    3.3126651 
H     3.4066049    0.6666828    3.7168669 
H     3.4364352   -0.1866807    5.2721962 
H     0.3316269   -1.6241542   -3.8897444 
C    -1.3617293    1.3907451   -3.3269482 
C    -0.3553578    0.4349315   -3.9940375 
C    -0.2612020   -0.9293418   -3.2691171 
C    -1.6726632   -1.5295783   -3.1021945 
C    -2.6433031   -0.5796573   -2.3909285 
C    -2.7488222    0.7569214   -3.1402933 
H    -1.4363937    2.3236706   -3.9145909 
H    -0.9705636    1.6733123   -2.3232951 
H     0.6375452    0.9136010   -4.0688672 
H    -0.6818173    0.2314075   -5.0324371 
H    -2.0485372   -1.7305009   -4.1253387 
H    -1.6327943   -2.5027479   -2.5921213 
H    -3.6351861   -1.0549624   -2.2926173 
H    -2.2798657   -0.3975999   -1.3614507 
H    -3.4124118    1.4541660   -2.5966667 
H    -3.2136179    0.5854420   -4.1310625 
H     2.6478026    0.4044782   -2.5612195 
C     4.3716348   -1.1822877   -4.0174289 
C     2.9014631   -1.4310452   -3.6268706 
C     2.5483775   -0.6709252   -2.3276794 
C     3.5377963   -0.9785185   -1.1777366 
C     5.0032379   -0.7747187   -1.6049673 
C     5.3322063   -1.5640234   -2.8810757 
H     4.5016565   -0.1106703   -4.2637590 
H     4.6065429   -1.7517234   -4.9343807 
H     2.7371123   -2.5167207   -3.5081689 
H     2.2484036   -1.0956093   -4.4510216 
H     3.2983600   -0.3408099   -0.3052449 
H     3.4165919   -2.0269285   -0.8454830 
H     5.1852329    0.2995232   -1.7905114 
H     5.6709694   -1.0720606   -0.7763488 
H     5.2482565   -2.6501305   -2.6763669 
H     6.3786152   -1.3808123   -3.1836269 
