112
Energy =
C     2.8442221   -1.7137602   -1.0895911 
C     3.0381445   -0.3325405   -1.3469644 
C     3.1529218    0.6257260   -0.3110757 
H     2.9653843    0.0286477   -2.3802191 
Pd    1.1571981   -0.4752377   -0.2003653 
P    -0.3312427    1.2153687    0.5018138 
P    -0.4123455   -2.1978851   -0.0524629 
H     3.1997688   -2.1110581   -0.1285362 
H     3.5054918    0.2707507    0.6690414 
C     2.3457519   -4.6920995   -4.1637837 
C     2.2108655   -3.3306053   -4.4846630 
C     2.3574031   -2.3543164   -3.4943044 
C     2.6642812   -2.7139932   -2.1589874 
C     2.8091495   -4.0873155   -1.8551880 
C     2.6434833   -5.0648424   -2.8441139 
H     2.2236675   -5.4556118   -4.9388883 
H     1.9784001   -3.0292514   -5.5112994 
H     2.2139475   -1.3031411   -3.7636093 
H     3.0478266   -4.3882818   -0.8299505 
H     2.7523925   -6.1220878   -2.5816185 
C     3.7888654    4.8247472   -1.0249935 
C     3.0423223    4.0662557   -1.9433496 
C     2.8307492    2.7017180   -1.7227621 
C     3.3517152    2.0646733   -0.5719543 
C     4.1063105    2.8379214    0.3379510 
C     4.3274954    4.2028308    0.1108826 
H     3.9523053    5.8931728   -1.1980841 
H     2.6197968    4.5436543   -2.8337237 
H     2.2368156    2.1267969   -2.4413263 
H     4.5274095    2.3594377    1.2291177 
H     4.9186696    4.7836661    0.8262636 
Fe   -2.8046163    0.3903688    2.9972323 
C    -1.9396297    0.6471950    1.1546252 
C    -2.4138359   -0.7181821    1.3528683 
C    -3.8365887   -0.6492118    1.5930907 
C    -4.2394687    0.7244560    1.5914781 
C    -3.0803636    1.5250267    1.3486970 
C    -3.7647756   -0.0333606    4.7482577 
C    -2.5465792   -0.7869566    4.6530038 
C    -1.4620507    0.1403790    4.5260498 
C    -2.0097813    1.4705561    4.5459330 
C    -3.4317003    1.3609354    4.6865866 
C    -1.5947969   -1.9920755    1.4017706 
H    -4.4930885   -1.4958038    1.7959028 
H    -5.2463006    1.0955425    1.7908650 
H    -3.0594035    2.6142182    1.3156445 
H    -4.7711407   -0.4488271    4.8269593 
H    -2.4631592   -1.8754269    4.6641354 
H    -0.4058816   -0.1200392    4.4421584 
H    -1.4457101    2.4011241    4.4782626 
H    -4.1401752    2.1908431    4.7129408 
H    -0.8634510   -1.8909148    2.2256410 
C    -2.4474336   -3.2471088    1.6519465 
H    -3.0344872   -3.1172273    2.5768866 
H    -3.1471927   -3.4342758    0.8201166 
H    -1.8120860   -4.1372943    1.7774282 
H     0.2259919    2.7041161   -1.2431877 
C    -1.9430263    3.8199593   -2.5052236 
C    -1.9053404    3.0639897   -1.1625080 
C    -0.6985108    2.1052466   -1.1199922 
C    -0.7783649    1.1081345   -2.2991270 
C    -0.8466257    1.8424592   -3.6494835 
C    -2.0112847    2.8444893   -3.6911972 
H    -1.0361056    4.4505241   -2.5932731 
H    -2.8086629    4.5062166   -2.5185014 
H    -2.8357110    2.4771295   -1.0544454 
H    -1.8754732    3.7827541   -0.3249585 
H     0.0935451    0.4228133   -2.2794270 
H    -1.6722126    0.4683193   -2.1788849 
H     0.1061845    2.3843057   -3.8157653 
H    -0.9387278    1.1034540   -4.4659107 
H    -2.9689626    2.2888546   -3.6487684 
H    -2.0087075    3.3982433   -4.6470220 
H    -0.7466809    2.7141711    2.3200269 
C     1.0485248    4.8373962    2.3149114 
C     0.6915871    3.8618227    1.1761290 
C     0.1847891    2.5250751    1.7536151 
C     1.2237778    1.9147315    2.7197285 
C     1.5885033    2.8915748    3.8510541 
C     2.0746467    4.2368370    3.2890877 
H     0.1257881    5.1004058    2.8698430 
H     1.4350698    5.7765738    1.8801092 
H     1.5830776    3.6877437    0.5512547 
H    -0.0709903    4.3226178    0.5266544 
H     0.8422595    0.9628723    3.1290397 
H     2.1325313    1.6670554    2.1407116 
H     0.7015720    3.0608307    4.4921768 
H     2.3598324    2.4389994    4.5002766 
H     3.0309343    4.0823430    2.7548626 
H     2.2802150    4.9440428    4.1123621 
C    -2.8193630   -2.7191843   -3.9889223 
C    -1.5245333   -3.2458571   -3.8700495 
C    -0.8214212   -3.1276461   -2.6644922 
C    -1.4109498   -2.4800606   -1.5567646 
C    -2.7140180   -1.9499390   -1.6825368 
C    -3.4114145   -2.0750357   -2.8919950 
H    -3.3673993   -2.8130189   -4.9321160 
H    -1.0508603   -3.7527774   -4.7170118 
H     0.1846133   -3.5459798   -2.5865471 
H    -3.1857440   -1.4303057   -0.8444134 
H    -4.4229898   -1.6642793   -2.9751075 
C     1.6556201   -6.1468744    1.2756165 
C     2.0137495   -4.9090478    1.8345016 
C     1.3880604   -3.7362359    1.3929704 
C     0.3898780   -3.7890130    0.3962242 
C     0.0183669   -5.0358611   -0.1425460 
C     0.6579965   -6.2064162    0.2915206 
H     2.1519506   -7.0634416    1.6104734 
H     2.7860712   -4.8572316    2.6088596 
H     1.6801436   -2.7675771    1.8188830 
H    -0.7678204   -5.0974799   -0.9006313 
H     0.3711501   -7.1701203   -0.1418196 
