112
Energy =
C     2.5620288    2.0949252   -0.6129900 
C     1.5979723    2.5961321   -1.5258618 
C     0.3595806    3.1286895   -1.0826804 
H     1.7630428    2.4559535   -2.6011794 
Pd    0.6145971    0.9642295   -0.4031721 
P    -1.6128996    0.2829746   -0.1669339 
P     1.5497367   -0.8894648    0.6887592 
H     2.5359616    2.4885399    0.4143077 
H     0.3192019    3.4914009   -0.0442421 
C     6.3653315    0.3948824   -1.6952593 
C     6.1600587    0.9474316   -0.4235579 
C     4.9141223    1.4894033   -0.0842938 
C     3.8489608    1.4958872   -1.0118253 
C     4.0735763    0.9406504   -2.2936513 
C     5.3154462    0.3955670   -2.6298396 
H     7.3375464   -0.0324951   -1.9613396 
H     6.9712995    0.9549776    0.3117621 
H     4.7580526    1.9148916    0.9129284 
H     3.2662374    0.9247726   -3.0336410 
H     5.4678488   -0.0347420   -3.6250871 
C    -2.6424766    4.9266635   -3.5979023 
C    -2.6337619    5.1518505   -2.2132275 
C    -1.6522786    4.5559030   -1.4127901 
C    -0.6674691    3.7069407   -1.9697238 
C    -0.6852016    3.4992111   -3.3687000 
C    -1.6565278    4.1065655   -4.1713159 
H    -3.4033343    5.3965728   -4.2292373 
H    -3.3843526    5.8056219   -1.7570760 
H    -1.6294598    4.7663344   -0.3377778 
H     0.0679298    2.8600721   -3.8405216 
H    -1.6462541    3.9376108   -5.2529235 
Fe   -0.3608058   -3.5219217    2.3912898 
C     0.3431795   -1.6901794    1.8044198 
C    -1.0816267   -1.8196103    1.5273224 
C    -1.7416478   -2.0824356    2.7800054 
C    -0.7558932   -2.1282166    3.8202310 
C     0.5274959   -1.9002207    3.2272153 
C    -0.0216112   -5.2067162    3.4920431 
C    -1.3282921   -5.2464447    2.9000758 
C    -1.1729481   -5.1710347    1.4762435 
C     0.2282660   -5.0777523    1.1859521 
C     0.9406877   -5.1014943    2.4343313 
C     2.8625519   -0.3573297    1.8630837 
C     4.1629939   -0.8925780    1.8804268 
C     5.1036028   -0.4248370    2.8128239 
C     4.7627131    0.5892911    3.7168345 
C     3.4714947    1.1449898    3.6880916 
C     2.5278432    0.6763403    2.7671973 
C     2.3078553   -2.1374901   -0.4125378 
C     2.3415741   -1.8973898   -1.7989131 
C     2.9238364   -2.8353093   -2.6627190 
C     3.4789286   -4.0145472   -2.1447581 
C     3.4476005   -4.2596527   -0.7617149 
C     2.8609721   -3.3265264    0.1026391 
C    -1.7690148   -1.5647454    0.2106559 
H    -2.8137764   -2.2508340    2.9031337 
H    -0.9436334   -2.3457019    4.8732463 
H     1.4845031   -1.8724184    3.7497680 
H     0.1989239   -5.2267987    4.5608950 
H    -2.2755068   -5.2998504    3.4400425 
H    -1.9853256   -5.1755875    0.7472615 
H     0.6760336   -4.9958174    0.1946186 
H     2.0229370   -5.0582066    2.5667157 
H     4.4577989   -1.6578210    1.1576764 
H     1.5210802    1.1092219    2.7488413 
H     1.8987916   -0.9759104   -2.1931769 
H     2.8193333   -3.5187140    1.1783233 
H     6.1128563   -0.8492555    2.8168929 
H     3.2003536    1.9438939    4.3860378 
H     2.9450292   -2.6442178   -3.7405199 
H     3.8765615   -5.1823344   -0.3571815 
H     5.5007787    0.9541572    4.4384853 
H     3.9347524   -4.7471678   -2.8188116 
H    -2.8480379   -1.7488152    0.3597774 
C    -1.2638005   -2.4348381   -0.9523558 
H    -1.1919236   -3.4794610   -0.6155619 
H    -1.9500003   -2.3916125   -1.8125977 
H    -0.2632560   -2.1260909   -1.2954056 
H    -2.8395910    1.7050231   -1.6152204 
H    -3.1482093    0.2819404    1.7128996 
C    -4.9643703    0.3506861   -2.7721888 
C    -4.0875446   -0.0742352   -1.5791906 
C    -2.7017862    0.6055286   -1.6515329 
C    -1.9963302    0.2914254   -2.9912091 
C    -2.8851086    0.7036171   -4.1784215 
C    -4.2703105    0.0397877   -4.1082336 
H    -5.1647324    1.4380625   -2.7038344 
H    -5.9431753   -0.1582360   -2.7138480 
H    -3.9576585   -1.1731764   -1.6066129 
H    -4.5949736    0.1615808   -0.6260842 
H    -1.0234240    0.8140396   -3.0283694 
H    -1.7774030   -0.7884782   -3.0616518 
H    -3.0071474    1.8026531   -4.1678304 
H    -2.3791383    0.4477674   -5.1270853 
H    -4.1601996   -1.0578890   -4.2147335 
H    -4.8978358    0.3767166   -4.9524246 
C    -3.9759214    2.8972375    2.2417832 
C    -3.3116486    2.3146970    0.9797724 
C    -2.4706916    1.0659355    1.3190567 
C    -1.4303846    1.4064744    2.4140050 
C    -2.1007400    1.9824230    3.6722496 
C    -2.9473341    3.2193753    3.3366673 
H    -4.7092001    2.1643854    2.6324223 
H    -4.5499267    3.8011698    1.9691451 
H    -2.6553636    3.0762034    0.5218578 
H    -4.0895203    2.0798057    0.2341013 
H    -0.8394710    0.5137098    2.6754388 
H    -0.7219808    2.1519869    1.9976209 
H    -2.7436274    1.2025853    4.1261213 
H    -1.3279897    2.2287676    4.4228681 
H    -2.2805599    4.0317484    2.9841065 
H    -3.4554468    3.5987199    4.2410042 
