132
Energy =
C     0.4088488   -0.4211482   -3.4624464 
C     0.4239758    0.9627027   -3.1169463 
C     1.3952349    1.4926012   -2.2350736 
H    -0.4199596    1.5942452   -3.4199080 
Pd    0.1932951   -0.1597139   -1.2406885 
P     0.1578271    0.7981500    0.8823610 
P    -0.4632566   -2.3129597   -0.5869905 
H     1.3749098   -0.9467022   -3.4690759 
H     2.3253928    0.9173190   -2.1119165 
C    -2.6290373   -2.2971474   -5.8795117 
C    -2.9118883   -1.0929251   -5.2123640 
C    -1.9357552   -0.4747492   -4.4242672 
C    -0.6421373   -1.0356658   -4.2975595 
C    -0.3681183   -2.2376373   -4.9898780 
C    -1.3519999   -2.8660364   -5.7645802 
H    -3.3983050   -2.7845290   -6.4868443 
H    -3.9062197   -0.6420849   -5.2958097 
H    -2.1906068    0.4400423   -3.8783233 
H     0.6335488   -2.6774378   -4.9250997 
H    -1.1169905   -3.7985482   -6.2882765 
C     1.8240832    5.5965441   -1.0207792 
C     2.7747956    4.6338780   -0.6508576 
C     2.6099521    3.2997465   -1.0405397 
C     1.4872841    2.8964567   -1.8006225 
C     0.5223448    3.8728840   -2.1393386 
C     0.6966810    5.2073257   -1.7622147 
H     1.9565726    6.6434002   -0.7298101 
H     3.6541019    4.9240384   -0.0662197 
H     3.3604150    2.5542004   -0.7572510 
H    -0.3692634    3.5930178   -2.7085342 
H    -0.0543476    5.9511662   -2.0471584 
Fe   -0.5345017   -0.9559551    3.9344897 
C    -0.8093354   -0.1880396    2.0729897 
C    -0.8933422   -1.6415748    2.0679259 
C    -1.9693959   -2.0106533    2.9539390 
C    -2.5267100   -0.8156602    3.5187908 
C    -1.8145816    0.3076091    2.9877388 
C     0.9371653   -2.1208854    4.7613588 
C     1.4249588   -0.7963264    4.5168227 
C     0.5965842    0.1227573    5.2486184 
C    -0.4018246   -0.6382122    5.9447113 
C    -0.1942921   -2.0255380    5.6400162 
C    -0.7749842    2.3729727    0.8061487 
C    -0.2574007    3.6362587    1.1390370 
C    -1.0621475    4.7866724    1.0636245 
C    -2.3900271    4.6535381    0.6034105 
C    -2.9331876    3.3972553    0.2411256 
C    -2.1070481    2.2699350    0.3512746 
C     1.8104290    1.0979538    1.5964703 
C     2.0107790    1.9197441    2.7226401 
C     3.2884964    2.0861321    3.2766365 
C     4.3738199    1.3949304    2.6830592 
C     4.1964598    0.5289989    1.5791726 
C     2.9015196    0.4013376    1.0467738 
C    -0.0448160   -2.5763056    1.2417976 
H    -2.2855163   -3.0277152    3.1897702 
H    -3.3301112   -0.7730566    4.2563349 
H    -1.9984075    1.3592671    3.2120144 
H     1.3537616   -3.0401181    4.3462150 
H     2.2689739   -0.5334606    3.8779766 
H     0.7040558    1.2075113    5.2752736 
H    -1.1951674   -0.2322918    6.5750508 
H    -0.8028918   -2.8585607    5.9970149 
H     0.7853616    3.7469639    1.4469801 
H    -2.5177366    1.2863313    0.0986470 
H     1.1591111    2.4183546    3.1953337 
H     2.7363688   -0.2639745    0.1894918 
H     1.0045208   -2.2325175    1.3063336 
H     0.2148436   -3.2597232   -2.6144902 
H    -2.5222685   -3.4750454    0.0012535 
C    -4.1646662   -3.4925877   -2.2979754 
C    -2.6505599   -3.2495045   -2.1632399 
C    -2.2876837   -2.7063047   -0.7623206 
C    -3.1124008   -1.4295073   -0.4617391 
C    -4.6232289   -1.6820142   -0.5927760 
C    -4.9781681   -2.2278332   -1.9837255 
H    -4.4679403   -4.3055047   -1.6087415 
H    -4.3806980   -3.8465087   -3.3222369 
H    -2.3325217   -2.5163266   -2.9230796 
H    -2.1105230   -4.1846724   -2.3796023 
H    -2.8781917   -1.0439047    0.5437065 
H    -2.8041808   -0.6511854   -1.1891983 
H    -4.9399148   -2.4052831    0.1842308 
H    -5.1702449   -0.7428530   -0.3894341 
H    -4.7531067   -1.4550325   -2.7449395 
H    -6.0602512   -2.4389843   -2.0531492 
C     1.0462565   -5.8136984   -2.5450027 
C     0.2821337   -5.0604224   -1.4387034 
C     0.5284743   -3.5418564   -1.5894419 
C     2.0403602   -3.2384223   -1.4622642 
C     2.8406739   -4.0083893   -2.5289448 
C     2.5546117   -5.5190568   -2.4747949 
H     0.6501457   -5.5078926   -3.5337976 
H     0.8628748   -6.8990233   -2.4521243 
H     0.6480995   -5.4077531   -0.4582617 
H    -0.7933832   -5.3009024   -1.4782863 
H     2.2209131   -2.1495106   -1.5538559 
H     2.3889264   -3.5320816   -0.4521929 
H     2.5663589   -3.6183347   -3.5293787 
H     3.9210470   -3.8146364   -2.4010584 
H     2.9574849   -5.9294908   -1.5277686 
H     3.0869612   -6.0363124   -3.2927483 
C    -0.1299865   -4.0310542    1.7330463 
H    -0.0617940   -4.0446890    2.8336837 
H    -1.0794747   -4.5149243    1.4480339 
H     0.6974861   -4.6365932    1.3361217 
C    -0.5472012    6.1417244    1.4863625 
H     0.4895964    6.0744237    1.8523041 
H    -0.5668621    6.8616568    0.6493331 
H    -1.1833552    6.5655431    2.2830008 
C    -4.3692808    3.2772822   -0.2135496 
H    -5.0056658    4.0028877    0.3194120 
H    -4.4694740    3.4848455   -1.2957411 
H    -4.7559422    2.2600752   -0.0356007 
O    -3.1896256    5.7765679    0.5855337 
C    -3.3106185    6.4430798   -0.6767967 
H    -3.9615227    7.3137051   -0.5076988 
H    -2.3244570    6.7878976   -1.0432720 
H    -3.7672950    5.7882762   -1.4430563 
C     3.5218857    2.9391043    4.5004895 
H     4.0843638    2.3747381    5.2635536 
H     4.1230362    3.8344309    4.2586561 
H     2.5683115    3.2796225    4.9351920 
C     5.3639213   -0.2409213    1.0074337 
H     6.0768431   -0.5104954    1.8036539 
H     5.0218982   -1.1599107    0.5029499 
H     5.9158002    0.3602304    0.2602492 
O     5.6143609    1.5100278    3.2672239 
C     6.4982449    2.4789270    2.6851475 
H     7.4173915    2.4611840    3.2891129 
H     6.7431499    2.2259308    1.6362650 
H     6.0557146    3.4928752    2.7165534 
