124
Energy =
C     2.9921640    0.4364979    1.3542831 
C     3.4136484   -0.0689662    0.0935694 
C     3.1029435    0.6252741   -1.1049225 
H     3.8608199   -1.0693538    0.0403015 
Pd    1.2176618    0.0331818    0.0100421 
P    -0.3442376   -0.0653268   -1.7249203 
P    -0.4419732   -0.0441636    1.6720079 
H     2.8238273    1.5215959    1.4275256 
H     2.8812248    1.6982560   -0.9986277 
C     3.5880003   -1.4615982    5.1719648 
C     3.5008829   -0.0653756    5.0693473 
C     3.3132126    0.5367541    3.8193602 
C     3.2110949   -0.2425670    2.6443075 
C     3.3249339   -1.6469311    2.7623525 
C     3.5059040   -2.2482210    4.0110959 
H     3.7257941   -1.9354187    6.1492787 
H     3.5796407    0.5585858    5.9658908 
H     3.2457269    1.6268558    3.7430216 
H     3.2488905   -2.2769503    1.8710859 
H     3.5739651   -3.3386066    4.0821927 
C     4.2263821   -0.4425672   -5.1162532 
C     3.5227440    0.7428862   -4.8586493 
C     3.1558791    1.0677403   -3.5485643 
C     3.4775651    0.2147375   -2.4672509 
C     4.1742673   -0.9838623   -2.7468549 
C     4.5495658   -1.3035081   -4.0551114 
H     4.5191606   -0.6979094   -6.1397322 
H     3.2600296    1.4167852   -5.6800085 
H     2.6124676    1.9992725   -3.3548869 
H     4.4365198   -1.6703239   -1.9363784 
H     5.0950996   -2.2320084   -4.2491537 
Fe   -3.6336490   -1.7266270   -1.4383484 
C    -1.6412794   -1.2567440   -1.2618113 
C    -2.2960747   -1.2436473    0.0368768 
C    -2.8599975   -2.5483226    0.2559565 
C    -2.5709395   -3.3635008   -0.8899725 
C    -1.8367572   -2.5723922   -1.8347221 
C    -4.7574538   -2.0780674   -3.1099215 
C    -5.3909126   -2.6229812   -1.9423812 
C    -5.6221990   -1.5493735   -1.0173938 
C    -5.1368030   -0.3389211   -1.6147320 
C    -4.6035919   -0.6679078   -2.9103396 
C    -2.2207316   -0.0929566    0.9970232 
H    -3.4319973   -2.8582803    1.1315406 
H    -2.8949207   -4.3950698   -1.0390654 
H    -1.4761706   -2.9017347   -2.8092400 
H    -4.4344970   -2.6403332   -3.9878265 
H    -5.6284684   -3.6749909   -1.7741887 
H    -6.0771657   -1.6419055   -0.0295525 
H    -5.1799470    0.6539368   -1.1624824 
H    -4.1530261    0.0266957   -3.6216711 
H    -2.2925900    0.8447719    0.4198026 
C    -3.2956562   -0.0925395    2.0875281 
H    -4.2912377   -0.0686776    1.6102436 
H    -3.2371810   -0.9949499    2.7179253 
H    -3.1967210    0.7926758    2.7376021 
C    -0.3650323   -3.4879343    4.8423571 
C    -0.9014084   -2.2217634    5.1463932 
C    -0.9144222   -1.2090205    4.1858803 
C    -0.3897391   -1.4160655    2.8886526 
C     0.1139180   -2.7011705    2.5458277 
C     0.1167106   -3.6988108    3.5397788 
H    -1.3120330   -2.0251423    6.1429967 
H    -1.3431366   -0.2375400    4.4486784 
H     0.5168347   -4.6862232    3.2794232 
C    -0.0426690    4.0957984    3.7049188 
C    -0.6948215    3.9823983    2.4604641 
C    -0.8382509    2.7040802    1.8952003 
C    -0.3543322    1.5569836    2.5636025 
C     0.3030910    1.7028131    3.7991567 
C     0.4658674    2.9743294    4.3828189 
H     0.0698711    5.0888242    4.1573398 
H    -1.3236429    2.6153632    0.9164491 
H     0.7005859    0.8261770    4.3167590 
C    -0.2922330   -4.5737331    5.8900236 
H    -0.1600267   -5.5698186    5.4366761 
H     0.5650378   -4.3968357    6.5670779 
H    -1.2014856   -4.5909956    6.5150497 
C     0.6046505   -3.0639546    1.1642560 
H     1.2398992   -3.9641254    1.1923669 
H    -0.2410360   -3.2634793    0.4827295 
H     1.1853277   -2.2346696    0.7109823 
C    -1.2154558    5.2117868    1.7494711 
H    -1.8464430    5.8210695    2.4203078 
H    -0.3814786    5.8536330    1.4121654 
H    -1.8089524    4.9468587    0.8602280 
C     1.1975257    3.1251083    5.6989878 
H     0.7337243    3.9004401    6.3320067 
H     1.2128383    2.1778343    6.2628816 
H     2.2482911    3.4287680    5.5290820 
C     0.8953205   -1.2659277   -6.0534434 
C     0.1771680   -0.1051053   -5.8236282 
C    -0.1928220    0.2548472   -4.5038770 
C     0.1605398   -0.5455609   -3.4195261 
H     1.1784119   -1.5498247   -7.0727712 
H    -0.1137636    0.5410241   -6.6579794 
H    -0.7644499    1.1740668   -4.3402625 
C     0.9244487   -1.7484299   -3.6255684 
C     1.2791486   -2.1144428   -4.9744617 
C     2.0101017   -3.3188237   -5.1967313 
C     2.3774257   -4.1373012   -4.1416055 
C     2.0362724   -3.7745448   -2.8129133 
C     1.3313458   -2.6085738   -2.5637024 
H     2.2765848   -3.5872263   -6.2248018 
H     2.9341270   -5.0611695   -4.3290159 
H     2.3358219   -4.4171860   -1.9781600 
H     1.0798826   -2.3365563   -1.5340144 
C    -0.1696841    2.7085578   -1.8012956 
C    -1.0450988    1.6263149   -1.8525071 
C    -2.4468400    1.8585735   -1.9283567 
C    -2.9456065    3.1499022   -1.9538670 
H     0.9084681    2.5400382   -1.7138369 
H    -3.1065417    0.9903275   -1.9365169 
H    -4.0272426    3.3185427   -2.0038910 
C    -2.0725700    4.2770155   -1.9144739 
C    -0.6494317    4.0470617   -1.8383409 
C     0.2320840    5.1673241   -1.7771395 
C    -0.2677645    6.4585461   -1.7924743 
C    -1.6696484    6.6855391   -1.8698666 
C    -2.5527007    5.6193772   -1.9298125 
H     1.3116551    4.9896503   -1.7165105 
H     0.4159230    7.3123690   -1.7456452 
H    -2.0497445    7.7122007   -1.8825584 
H    -3.6322327    5.7954885   -1.9885967 
