134
Energy =
C    -0.1669394   -0.6537434   -3.3786459 
C     0.4095335    0.6316584   -3.3411573 
C     1.6749522    0.8439434   -2.7074915 
H    -0.1749376    1.4904985   -3.6970673 
Pd    0.2034407    0.0795510   -1.2106135 
P     1.5964683    0.5166611    0.6295932 
P    -1.7721607   -0.5734413   -0.0980414 
H     0.4700581   -1.5053547   -3.0887275 
H     2.3986103    0.0255256   -2.7921812 
C    -3.7385012   -1.7585196   -5.4920418 
C    -3.2573706   -2.5577345   -4.4420671 
C    -2.0914786   -2.1939465   -3.7644378 
C    -1.3963303   -1.0095225   -4.1006295 
C    -1.8888600   -0.2181579   -5.1632973 
C    -3.0434983   -0.5960249   -5.8574665 
H    -4.6469694   -2.0476645   -6.0302143 
H    -3.7960078   -3.4655730   -4.1522545 
H    -1.7192397   -2.8135044   -2.9423907 
H    -1.3457974    0.6814577   -5.4705052 
H    -3.4019898    0.0193210   -6.6888886 
C     3.4573461    4.7325980   -2.2681749 
C     2.0591705    4.6008319   -2.2435933 
C     1.4692699    3.3392348   -2.3607325 
C     2.2666796    2.1805170   -2.5152618 
C     3.6722947    2.3236037   -2.4954454 
C     4.2613987    3.5888397   -2.3804252 
H     3.9175204    5.7220478   -2.1814554 
H     1.4272551    5.4861158   -2.1213843 
H     0.3787045    3.2461507   -2.3114828 
H     4.3034638    1.4328139   -2.5862611 
H     5.3525188    3.6824545   -2.3839337 
Fe    0.7233167   -4.5014153    1.0387241 
C    -0.1882087   -2.8048529    0.3935463 
C     0.9290711   -2.4747722    1.2645520 
C     2.1154003   -3.0701911    0.6970607 
H     3.1114411   -3.0126620    1.1370958 
C     1.7577317   -3.7266660   -0.5254447 
H     2.4317883   -4.2931318   -1.1710586 
C     0.3463056   -3.5605015   -0.7151453 
H    -0.2439358   -3.9811641   -1.5324556 
C    -0.6343213   -5.9942094    1.3783307 
H    -1.6626491   -6.0304925    1.0137406 
C    -0.1942780   -5.4316288    2.6234661 
H    -0.8354809   -4.9762500    3.3800464 
C     1.2319127   -5.5865119    2.7016376 
H     1.8751238   -5.2527036    3.5179477 
C     1.6707992   -6.2496257    1.5084415 
H     2.7038063   -6.4938760    1.2540088 
C     0.5185497   -6.5012225    0.6902998 
H     0.5220751   -6.9726659   -0.2943065 
C     0.9431823   -1.5717050    2.4492722 
C     1.2031034   -0.1805181    2.3004120 
C     1.2753661    0.6435975    3.4413332 
H     1.4697501    1.7139690    3.3230630 
C     1.1077662    0.1075770    4.7243950 
H     1.1797080    0.7605263    5.5999895 
C     0.8441719   -1.2595924    4.8788523 
H     0.7090034   -1.6880766    5.8773022 
C     0.7619060   -2.0834776    3.7484775 
H     0.5692702   -3.1531786    3.8534669 
C    -2.3526656    0.5493891    1.2604845 
C    -3.1424314    1.6622311    0.8945236 
H    -3.4315236    1.8121540   -0.1491433 
C    -3.5968264    2.5840878    1.8509000 
C    -3.2526614    2.3738782    3.1983273 
H    -3.6151809    3.0760575    3.9592888 
C    -2.4704046    1.2767560    3.5976932 
C    -2.0096715    0.3767578    2.6159521 
H    -1.3917604   -0.4647487    2.9312383 
C    -3.2637507   -0.5724506   -1.1802165 
C    -4.3208555   -1.4862628   -1.0138150 
H    -4.2670462   -2.2725619   -0.2536744 
C    -5.4747877   -1.4048863   -1.8142322 
C    -5.5629438   -0.3666357   -2.7599397 
H    -6.4634594   -0.2885332   -3.3812640 
C    -4.5298658    0.5713057   -2.9380051 
C    -3.3705653    0.4379702   -2.1542598 
H    -2.5335534    1.1318279   -2.3036494 
C    -1.6329321   -2.3732368    0.4989374 
H    -2.1581525   -2.8868238   -0.3259088 
C    -2.3489668   -2.7341921    1.8127495 
H    -2.5299746   -3.8207218    1.8313787 
H    -1.7352320   -2.4844471    2.6902030 
H    -3.3153371   -2.2127016    1.9103283 
C    -6.5858553   -2.4226557   -1.6822751 
C    -4.6724669    1.7050861   -3.9273916 
C    -4.4726642    3.7497624    1.4477922 
C    -2.1335769    1.0764504    5.0581904 
C     1.5805653    5.0976373    1.2845347 
C     2.8222783    4.4696096    1.0740790 
C     2.8466395    3.0775061    0.8745925 
C     1.6543300    2.3321488    0.9022899 
C     0.4213968    2.9849858    1.1022713 
C     0.3724293    4.3766826    1.3000920 
H     1.5524585    6.1842537    1.4321540 
H     3.8023173    2.5834200    0.6798821 
H    -0.5095848    2.4071520    1.1120254 
C     5.9791191   -0.9860327    0.3223310 
C     5.0851212   -1.2945506   -0.7155484 
C     3.7636382   -0.8158459   -0.6213292 
C     3.3481623   -0.0453113    0.4727558 
C     4.2585499    0.2220380    1.5177916 
C     5.5848234   -0.2340994    1.4498510 
H     7.0103646   -1.3554635    0.2646750 
H     3.0354943   -1.0964089   -1.3860318 
H     3.9304897    0.7807773    2.4012734 
H    -5.5262412    3.5595452    1.7247770 
H    -4.1643018    4.6788409    1.9575854 
H    -4.4391739    3.9239293    0.3595170 
H    -3.0027560    1.3018368    5.6996666 
H    -1.8051692    0.0448651    5.2598484 
H    -1.3133887    1.7510820    5.3657691 
H    -6.5208468   -2.9755538   -0.7305283 
H    -7.5788401   -1.9446934   -1.7380190 
H    -6.5330838   -3.1619310   -2.5041106 
H    -3.6892243    2.1030405   -4.2279945 
H    -5.2057092    1.3810662   -4.8367365 
H    -5.2519341    2.5365878   -3.4832872 
C     4.1071570    5.2667345    1.0845909 
H     4.9008700    4.7539227    0.5169688 
H     3.9621948    6.2702130    0.6499549 
H     4.4703084    5.4067548    2.1204002 
C    -0.9544190    5.0687162    1.5211462 
H    -1.6530179    4.8578322    0.6921403 
H    -1.4376248    4.7027447    2.4447730 
H    -0.8338535    6.1611689    1.6026450 
C     5.5083517   -2.1208323   -1.9102622 
H     6.4939665   -2.5881117   -1.7537091 
H     4.7754367   -2.9207926   -2.1185742 
H     5.5736603   -1.4949175   -2.8200054 
C     6.5734860    0.0754452    2.5521140 
H     6.0708432    0.4877509    3.4422569 
H     7.1296819   -0.8286729    2.8556588 
H     7.3198665    0.8168576    2.2111378 
