98
Energy =
C    -0.8372781   -2.8913013    0.5544196 
C    -1.4918603   -2.1771100    1.5884907 
C    -2.5479452   -1.2774710    1.3006595 
H    -1.1112281   -2.2485781    2.6144703 
Pd   -0.5873948   -0.6419549    0.2691873 
P    -1.1177386    1.6433631    0.0679620 
P     1.4701200   -0.7282172   -0.8929398 
H    -1.3970444   -3.0220584   -0.3833445 
H    -3.0805114   -1.4224686    0.3493597 
C     2.3576953   -5.7263647    1.0621563 
C     2.1002097   -4.7823035    2.0711787 
C     1.0611516   -3.8581962    1.9254942 
C     0.2489875   -3.8614774    0.7666027 
C     0.5102855   -4.8273682   -0.2330211 
C     1.5559467   -5.7478086   -0.0890625 
H     3.1765567   -6.4437455    1.1766645 
H     2.7216196   -4.7614509    2.9723112 
H     0.9002876   -3.1068005    2.7054713 
H    -0.1177448   -4.8547696   -1.1304866 
H     1.7423025   -6.4869865   -0.8749168 
C    -4.8207006    0.9221281    4.2277966 
C    -3.5502726    0.4255067    4.5649112 
C    -2.8016234   -0.2943943    3.6280661 
C    -3.3016943   -0.5322526    2.3260760 
C    -4.5946201   -0.0489088    2.0133008 
C    -5.3445298    0.6724553    2.9507770 
H    -5.4032547    1.4873799    4.9622188 
H    -3.1411062    0.6006388    5.5652479 
H    -1.8159181   -0.6745137    3.9148862 
H    -5.0199093   -0.2566688    1.0249873 
H    -6.3433374    1.0337551    2.6854115 
Fe    1.5607486    2.5332949   -1.7485182 
C     2.3815204    0.8353097   -1.0877093 
C     2.4636538    1.8640551   -0.0723254 
H     2.0202203    1.8068572    0.9221053 
C     3.2091222    2.9658996   -0.6041202 
H     3.4153497    3.9051185   -0.0882065 
C     3.6040457    2.6340527   -1.9410016 
H     4.1640172    3.2758568   -2.6233896 
C     3.1065427    1.3245418   -2.2455571 
C    -0.3918384    2.5572785   -1.3290519 
C    -0.1654937    1.9901624   -2.6427813 
H    -0.4374488    0.9805256   -2.9529485 
C     0.4984785    2.9705302   -3.4495248 
H     0.8305959    2.8305741   -4.4796070 
C     0.6800056    4.1512357   -2.6583826 
H     1.1751025    5.0694084   -2.9792763 
C     0.1296513    3.9108327   -1.3567539 
H     3.2408835    0.8048425   -3.1951390 
H     0.1301491    4.6235881   -0.5308607 
C    -0.7406011    2.7024790    1.5855167 
C    -2.0879366    3.3946099    1.9322844 
C    -2.9257768    3.5355656    0.6519464 
C    -2.9231699    2.1576159   -0.0381866 
H    -0.0075774    3.4548520    1.2424416 
H    -2.6380552    2.7599697    2.6531219 
H    -1.9129248    4.3687457    2.4202215 
H    -3.9601110    3.8541174    0.8753123 
H    -2.4898070    4.2968724   -0.0232417 
H    -3.4570756    1.4513004    0.6209038 
C     1.3575560   -1.4028924   -2.6533461 
C     2.4829340   -2.4749712   -2.7540643 
C     3.5546421   -2.2098291   -1.6829025 
C     2.8062633   -1.9333816   -0.3637813 
H     1.5889211   -0.5415379   -3.3050664 
H     2.0349610   -3.4692469   -2.5688369 
H     2.9149774   -2.4967681   -3.7691414 
H     4.2355973   -3.0732615   -1.5722257 
H     4.1769098   -1.3402215   -1.9629331 
H     2.2331866   -2.8415023   -0.1135220 
C     3.6397391   -1.5451520    0.8796953 
H     2.9748672   -1.0476399    1.6129418 
H     3.9545128   -2.4881581    1.3637614 
C     4.8847005   -0.6824898    0.6272565 
H     5.3777575   -0.4429204    1.5850420 
H     5.6209914   -1.2175223    0.0028605 
H     4.6440450    0.2687564    0.1255087 
C    -0.0390475   -1.9304845   -3.0342912 
H    -0.2730927   -2.8071220   -2.4026096 
H    -0.8034655   -1.1683689   -2.7889251 
C    -0.1497035   -2.3136930   -4.5159186 
H    -1.1662103   -2.6695503   -4.7561043 
H     0.0685385   -1.4464537   -5.1653038 
H     0.5589337   -3.1178275   -4.7799661 
C    -0.1222217    1.9060180    2.7492718 
H     0.7827958    1.3759667    2.3971850 
H    -0.8344301    1.1185087    3.0503823 
C     0.2294569    2.7805977    3.9595156 
H     0.7027943    2.1784205    4.7541099 
H     0.9340907    3.5849895    3.6797698 
H    -0.6695672    3.2549154    4.3898750 
C    -3.5354318    2.1070136   -1.4440935 
H    -2.9605560    2.7669901   -2.1204267 
H    -4.5521314    2.5404421   -1.3842295 
C    -3.6200795    0.6924537   -2.0321777 
H    -4.2694389    0.0427440   -1.4182925 
H    -4.0317585    0.7078037   -3.0552181 
H    -2.6237580    0.2132244   -2.0754074 
