94
Energy =
C    -1.4939006    2.3541503    1.1441851 
C    -0.5153389    2.0950080    2.1364867 
C     0.8661585    2.3225642    1.8607072 
H    -0.7987815    1.5790601    3.0627038 
Pd    0.0485243    0.8175943    0.4394609 
P     2.0752563   -0.1779856   -0.1422911 
P    -1.4746185   -0.4166231   -0.8413680 
H    -1.2106803    3.0582902    0.3466079 
H     1.1100180    3.1082435    1.1298329 
C    -5.7231626    1.6098951    1.3072473 
C    -4.8900673    1.0826484    2.3082113 
C    -3.5122307    1.3151919    2.2740744 
C    -2.9365263    2.0923052    1.2418219 
C    -3.7908153    2.6227677    0.2461402 
C    -5.1678233    2.3796890    0.2745636 
H    -6.8022073    1.4256824    1.3381254 
H    -5.3168274    0.4809401    3.1165165 
H    -2.8797148    0.8816822    3.0541686 
H    -3.3646799    3.2282057   -0.5596106 
H    -5.8092882    2.7997968   -0.5070674 
C     4.0963455    1.3171286    4.5200241 
C     2.9552624    0.4985481    4.4691461 
C     1.8976381    0.8206385    3.6143191 
C     1.9590602    1.9666366    2.7883124 
C     3.1125058    2.7767699    2.8472831 
C     4.1693988    2.4576860    3.7081192 
H     4.9254659    1.0627510    5.1883349 
H     2.8955821   -0.3995147    5.0927970 
H     1.0236431    0.1622902    3.5623168 
H     3.1765188    3.6665965    2.2125676 
H     5.0561886    3.0988320    3.7382909 
Fe    0.8369824   -1.8376164   -2.8144123 
C     2.1957865   -0.6853313   -1.8825394 
C     1.5872092    0.0335635   -2.9809595 
H     1.0191612    0.9619657   -2.9006946 
C     1.8488643   -0.7022529   -4.1827916 
H     1.4977904   -0.4367706   -5.1815433 
C     2.6083307   -1.8713717   -3.8398967 
H     2.9323805   -2.6495173   -4.5334126 
C     2.8309299   -1.8662024   -2.4246804 
C    -0.9607008   -1.8068557   -1.8985391 
C    -0.1890212   -2.9488400   -1.4628007 
H     0.1213912   -3.1624833   -0.4386230 
C     0.1063470   -3.7398941   -2.6210119 
H     0.6969845   -4.6577407   -2.6303474 
C    -0.4651338   -3.0953536   -3.7688322 
H    -0.3851579   -3.4380408   -4.8020245 
C    -1.1265306   -1.9017100   -3.3313770 
H     3.3627367   -2.6213027   -1.8455683 
H    -1.6483243   -1.1796692   -3.9607141 
C     2.3891299   -1.6583645    0.8322301 
C     1.6225473   -2.2912731    1.7875326 
C     2.3673633   -3.4301487    2.2268985 
C     3.5492772   -3.4287319    1.5181559 
H     0.6404602   -1.9658667    2.1280367 
H     2.0728791   -4.1632173    2.9777257 
O     3.5702119   -2.3539802    0.6660289 
C     4.7433491   -4.3188410    1.5012159 
H     4.8997577   -4.7544768    0.4979475 
H     5.6578557   -3.7594994    1.7685264 
H     4.6092922   -5.1384549    2.2229782 
C     3.5550341    0.8293873    0.1232437 
C     4.8119453    0.6070166    0.6405729 
C     5.5403861    1.8259622    0.4625016 
C     4.6914701    2.7181194   -0.1530174 
H     5.1633012   -0.3211724    1.0878932 
H     6.5706690    2.0243505    0.7582502 
O     3.4732185    2.1190352   -0.3602910 
C     4.8279045    4.1313525   -0.6026782 
H     4.6388088    4.2237095   -1.6873045 
H     4.1078533    4.7888616   -0.0813622 
H     5.8456417    4.4936424   -0.3928232 
C    -2.7266518   -1.1252630    0.2555253 
C    -2.5724475   -1.7020007    1.5014813 
C    -3.8474816   -2.2358278    1.8627513 
C    -4.7041002   -1.9480216    0.8208385 
H    -1.6540749   -1.7221836    2.0881512 
H    -4.1103394   -2.7569862    2.7831860 
C    -2.3143323    0.6983341   -1.9810768 
C    -1.8955840    1.8991813   -2.5194476 
C    -2.9276481    2.3281454   -3.4109778 
C    -3.9138068    1.3639844   -3.3655232 
H    -0.9634995    2.4151423   -2.2844376 
H    -2.9481215    3.2383848   -4.0102517 
O    -4.0239077   -1.2834683   -0.1627350 
O    -3.5390941    0.3646694   -2.5098664 
C    -6.1532081   -2.1899112    0.5795799 
H    -6.6899445   -1.2326549    0.4513738 
H    -6.3083596   -2.7867046   -0.3368033 
H    -6.5919283   -2.7305389    1.4317436 
C    -5.2433931    1.2166027   -4.0208493 
H    -6.0483332    1.1787511   -3.2648678 
H    -5.4285462    2.0680893   -4.6927598 
H    -5.2944827    0.2828205   -4.6085549 
