98
Energy =
C    -0.6181298   -2.8720251    0.5423666 
C    -1.2966206   -2.1955784    1.5858586 
C    -2.3584016   -1.3014108    1.3025210 
H    -0.9377529   -2.2943495    2.6173172 
Pd   -0.3874617   -0.6098380    0.3363715 
P    -0.9673547    1.6757520    0.1345150 
P     1.6276135   -0.7141109   -0.9054364 
H    -1.1626121   -2.9780433   -0.4066408 
H    -2.8666946   -1.4241412    0.3347868 
C     2.5844328   -5.7053784    1.0122522 
C     1.8174863   -5.6781715   -0.1622880 
C     0.7702337   -4.7578910   -0.2945569 
C     0.4722320   -3.8405806    0.7396327 
C     1.2442011   -3.8916387    1.9234855 
C     2.2866635   -4.8139607    2.0572556 
H     3.4049238   -6.4221970    1.1182121 
H     2.0319047   -6.3791963   -0.9754548 
H     0.1671444   -4.7499999   -1.2092264 
H     1.0443877   -3.1873265    2.7372145 
H     2.8773174   -4.8347963    2.9789003 
C    -4.7942008    0.6419023    4.2725427 
C    -5.2753245    0.4367331    2.9708681 
C    -4.4664288   -0.1912387    2.0158923 
C    -3.1582353   -0.6222823    2.3373476 
C    -2.6927241   -0.4174880    3.6570660 
C    -3.5021565    0.2060672    4.6121392 
H    -5.4240439    1.1313183    5.0222610 
H    -6.2857018    0.7598333    2.6998462 
H    -4.8528575   -0.3642161    1.0052441 
H    -1.6826986   -0.7344810    3.9371114 
H    -3.1227737    0.3577344    5.6279295 
Fe    1.6497657    2.5320466   -1.8050558 
C     2.5181405    0.8531119   -1.1575842 
C     2.6253870    1.8924448   -0.1562003 
H     2.2131379    1.8408129    0.8516445 
C     3.3321317    2.9995115   -0.7281805 
H     3.5429053    3.9480571   -0.2313693 
C     3.6806118    2.6587457   -2.0758961 
H     4.2044934    3.3012290   -2.7857939 
C     3.1920497    1.3385894   -2.3474625 
C    -0.2880708    2.5584332   -1.3085271 
C    -0.1148699    1.9725184   -2.6207839 
H    -0.4049619    0.9602907   -2.9041621 
C     0.5180780    2.9394270   -3.4678425 
H     0.8080083    2.7840883   -4.5084129 
C     0.7314614    4.1320696   -2.7025037 
H     1.2138503    5.0446604   -3.0569979 
C     0.2350415    3.9104887   -1.3759922 
H     3.2965675    0.8113637   -3.2967694 
H     0.2670730    4.6346673   -0.5609152 
C    -0.6422446    2.8906840    1.5387599 
C    -1.8360616    3.9056078    1.4834852 
C    -2.7671932    3.6354902    0.2806228 
C    -2.7819816    2.1167408    0.0242538 
H     0.3163924    3.3817701    1.2948605 
H    -2.4187415    3.7867560    2.4142762 
H    -1.4627215    4.9438142    1.4752172 
H    -3.7846126    4.0107102    0.4881189 
H    -2.4119393    4.1573934   -0.6266791 
H    -3.2419971    1.6145066    0.8961988 
C     1.3819130   -1.3756484   -2.6613581 
C     2.4567805   -2.4824660   -2.8379809 
C     3.6312305   -2.2118346   -1.8868181 
C     3.0583879   -1.8777218   -0.4923901 
H     1.6143925   -0.5128708   -3.3113629 
H     2.0042090   -3.4576354   -2.5801689 
H     2.7886841   -2.5453720   -3.8886449 
H     4.3088143   -3.0821918   -1.8221202 
H     4.2370964   -1.3593296   -2.2487657 
H     2.5990451   -2.7853513   -0.0646914 
C     4.0972288   -1.3104376    0.4873024 
H     4.9284647   -2.0391192    0.5427746 
H     4.5289822   -0.3860832    0.0594157 
C     3.5634451   -1.0383597    1.8971920 
H     3.2316812   -1.9711608    2.3822897 
H     4.3388345   -0.5790577    2.5333911 
H     2.6984326   -0.3525596    1.8721141 
C    -0.0515525   -1.8408012   -2.9830456 
H    -0.2684610   -2.7565898   -2.4037540 
H    -0.7794644   -1.0833864   -2.6324709 
C    -0.2659586   -2.1140025   -4.4779008 
H    -1.3024321   -2.4366064   -4.6758822 
H    -0.0729131   -1.2054011   -5.0769838 
H     0.4084781   -2.9073116   -4.8444434 
C    -0.5355617    2.2399214    2.9326061 
H    -1.4802812    1.7087781    3.1459640 
H    -0.4823650    3.0660831    3.6677025 
C     0.6474426    1.2954738    3.1490305 
H     0.6311400    0.8709192    4.1675782 
H     0.6157435    0.4490220    2.4315748 
H     1.6152024    1.8130005    3.0217026 
C    -3.4726645    1.6395457   -1.2627006 
H    -3.3438743    0.5425630   -1.3485892 
H    -2.9595178    2.0816599   -2.1376309 
C    -4.9680411    1.9872299   -1.3153394 
H    -5.1268754    3.0790822   -1.3368475 
H    -5.4368144    1.5646641   -2.2203731 
H    -5.5049192    1.5883256   -0.4360197 
