124
Energy =
C     0.2403257   -2.0712014   -2.1883816 
C     0.7877138   -0.9144521   -2.7978682 
C     1.9691228   -0.3059659   -2.3023026 
H     0.2429341   -0.4174142   -3.6102311 
Pd    0.3017932   -0.3127965   -0.7327983 
P     1.0441187    1.5075849    0.5837560 
P    -1.4320590   -0.8923585    0.7328693 
H     0.9305265   -2.6699010   -1.5761072 
H     2.6491933   -0.9384839   -1.7123243 
C    -3.0863689   -4.3761691   -3.6416726 
C    -2.3169578   -4.8278262   -2.5589869 
C    -1.2549128   -4.0533710   -2.0828849 
C    -0.9368768   -2.8080394   -2.6744215 
C    -1.7330167   -2.3602974   -3.7555628 
C    -2.7903829   -3.1392035   -4.2360323 
H    -3.9166127   -4.9837945   -4.0156447 
H    -2.5520370   -5.7828329   -2.0788185 
H    -0.6545426   -4.4180231   -1.2422771 
H    -1.5109542   -1.4082151   -4.2482525 
H    -3.3844068   -2.7814818   -5.0835558 
C     3.9047995    2.9308171   -4.3614826 
C     2.5021034    2.8858357   -4.3058738 
C     1.8582208    1.8534932   -3.6184408 
C     2.6030925    0.8524177   -2.9542724 
C     4.0137612    0.9311391   -2.9880195 
C     4.6576930    1.9481198   -3.7027602 
H     4.4075230    3.7329018   -4.9115128 
H     1.9081897    3.6588664   -4.8040270 
H     0.7647221    1.8250354   -3.5933814 
H     4.6063467    0.1673751   -2.4717783 
H     5.7514244    1.9774315   -3.7403820 
Fe   -2.8146050    2.0024993   -0.4313991 
C    -2.3319259    0.6580060    1.0269987 
C    -1.7050247    1.9498247    1.2835089 
C    -2.7708007    2.9148136    1.3872111 
C    -4.0243338    2.2515322    1.1925679 
C    -3.7624190    0.8626284    0.9697383 
C    -3.8543485    3.0313776   -1.8492642 
C    -2.4989118    3.4996772   -1.7821370 
C    -1.6326630    2.3892792   -2.0650767 
C    -2.4535416    1.2405957   -2.3104862 
C    -3.8267408    1.6337831   -2.1745490 
C    -0.2871139    2.2711399    1.7042159 
H    -2.6296925    3.9812769    1.5761773 
H    -5.0078028    2.7248800    1.1835045 
H    -4.5061969    0.0884348    0.7774944 
H    -4.7489008    3.6292356   -1.6660052 
H    -2.1888660    4.5202436   -1.5520036 
H    -0.5436343    2.4103198   -2.0902360 
H    -2.0884468    0.2397138   -2.5466351 
H    -4.6989868    0.9863911   -2.2834281 
H    -0.1612642    3.3604195    1.5821812 
C    -0.0764655    1.9347305    3.2007699 
H    -0.9801216    2.2263692    3.7631488 
H     0.0989446    0.8617551    3.3614884 
H     0.7792259    2.4848500    3.6171628 
C     4.3964452   -0.2072054    3.3630043 
C     3.6333031   -1.0147285    2.4991123 
C     2.6643592   -0.4369663    1.6780010 
C     2.4095632    0.9509939    1.6851493 
C     3.1823139    1.7897634    2.5363681 
C     4.1552736    1.1787169    3.3512382 
H     3.7855481   -2.0988386    2.4724201 
H     2.0736699   -1.0745008    1.0097652 
H     4.7506735    1.8205640    4.0125200 
C     2.8071796    5.2040982   -1.5836875 
C     1.4226812    5.1565034   -1.3488663 
C     0.8963820    4.0317974   -0.6862299 
C     1.7268958    2.9622107   -0.3054751 
C     3.1072192    3.0220038   -0.5847945 
C     3.6662254    4.1579037   -1.1919776 
H     3.2344947    6.0880235   -2.0723480 
H    -0.1732150    4.0007357   -0.4560456 
H     3.7611642    2.1986111   -0.2795989 
C     5.4193977   -0.8144319    4.2945134 
H     4.9257478   -1.2020710    5.2059355 
H     5.9407448   -1.6630432    3.8199026 
H     6.1719304   -0.0744880    4.6129711 
C     3.0520627    3.2982935    2.6103166 
H     3.8732513    3.7812359    2.0499146 
H     2.1144623    3.6773457    2.1786231 
H     3.1206293    3.6401049    3.6573256 
C     0.5075195    6.2718111   -1.8045346 
H    -0.0015801    5.9957453   -2.7476360 
H    -0.2775513    6.4799534   -1.0566654 
H     1.0637709    7.2054780   -1.9880621 
C     5.1627079    4.2875806   -1.3633398 
H     5.4207788    4.7206136   -2.3444690 
H     5.5799758    4.9581790   -0.5883336 
H     5.6657317    3.3118025   -1.2722800 
C    -0.1936299   -2.3101122    5.0151562 
C    -1.2068662   -1.3841141    4.8356921 
C    -1.5826706   -0.9830785    3.5287409 
C    -0.9501646   -1.5093311    2.4050740 
H     0.1130889   -2.6085079    6.0235149 
H    -1.7169430   -0.9459999    5.6993795 
H    -2.3669726   -0.2290371    3.4060894 
C     0.0539133   -2.5268708    2.5617306 
C     0.4514251   -2.9103625    3.8947674 
C     1.4614130   -3.9052506    4.0584116 
C     2.0377367   -4.5264808    2.9629441 
C     1.6180510   -4.1803736    1.6506680 
C     0.6506841   -3.2069615    1.4602729 
H     1.7637968   -4.1821721    5.0742808 
H     2.8049497   -5.2944939    3.1045874 
H     2.0573721   -4.6903237    0.7866112 
H     0.3238638   -2.9503267    0.4483099 
C    -2.8728542   -3.3102096    0.8913689 
C    -2.7222388   -2.0967615    0.2255961 
C    -3.5780048   -1.7932246   -0.8769410 
C    -4.5784488   -2.6676092   -1.2536365 
H    -2.2280481   -3.5699898    1.7359827 
H    -3.4514698   -0.8454923   -1.3978184 
H    -5.2339206   -2.4155800   -2.0938939 
C    -4.7584792   -3.9152279   -0.5871873 
C    -3.8731073   -4.2458264    0.4999627 
C    -4.0169502   -5.5063731    1.1517159 
C    -4.9903980   -6.4039397    0.7435060 
C    -5.8660714   -6.0752481   -0.3274030 
C    -5.7547433   -4.8554508   -0.9765186 
H    -3.3425489   -5.7550435    1.9787177 
H    -5.0912860   -7.3709158    1.2470281 
H    -6.6327420   -6.7930147   -0.6372958 
H    -6.4273318   -4.6030584   -1.8036707 
