124
Energy =
C     2.5655444   -0.9359874   -2.1371719 
C     2.5038277    0.4809700   -2.2900630 
C     2.8833824    1.3453114   -1.2390847 
H     2.0314549    0.9017635   -3.1861895 
Pd    1.1614850   -0.0557130   -0.6287378 
P    -0.1716810    1.4791343    0.5903592 
P     0.0696406   -2.0260884    0.0125324 
H     3.3361432   -1.3266047   -1.4584336 
H     3.5219830    0.9196298   -0.4501083 
C     1.3180863   -3.7461285   -5.1591411 
C     0.7917574   -2.4432915   -5.1583178 
C     1.1774770   -1.5251163   -4.1756399 
C     2.1151303   -1.8823411   -3.1781254 
C     2.6421241   -3.1939209   -3.1974171 
C     2.2444263   -4.1174376   -4.1727426 
H     1.0092175   -4.4644522   -5.9250798 
H     0.0686660   -2.1449559   -5.9244719 
H     0.7327839   -0.5241096   -4.1759431 
H     3.3821225   -3.4842800   -2.4432059 
H     2.6663898   -5.1278056   -4.1682027 
C     2.8630706    5.6502735   -1.2603601 
C     3.4332679    4.9366269   -0.1948199 
C     3.4434088    3.5373320   -0.2136311 
C     2.8722426    2.8163221   -1.2879161 
C     2.3180457    3.5512748   -2.3632363 
C     2.3161597    4.9502235   -2.3485826 
H     2.8570755    6.7448668   -1.2511684 
H     3.8792595    5.4719823    0.6498490 
H     3.9010286    2.9861790    0.6147610 
H     1.8838563    3.0283945   -3.2211604 
H     1.8866145    5.4990011   -3.1929798 
Fe   -2.8916116    0.3390871    2.8965498 
C    -1.7020149    0.7019005    1.2346203 
C    -1.8625445   -0.7273070    1.4952213 
C    -3.2694628   -1.0285193    1.4463381 
C    -3.9904501    0.1824387    1.1930982 
C    -3.0391875    1.2470671    1.0883341 
C    -3.0427105    1.7308687    4.3977425 
C    -4.2863753    1.0450650    4.2091006 
C    -4.0576911   -0.3567654    4.4180466 
C    -2.6722236   -0.5384492    4.7414007 
C    -2.0455024    0.7505032    4.7311071 
C    -0.7801729   -1.7615983    1.6721895 
H    -3.7082490   -2.0139914    1.6169711 
H    -5.0757677    0.2862743    1.1408747 
H    -3.2811365    2.2946425    0.9111445 
H    -2.8879193    2.8068661    4.3067291 
H    -5.2362947    1.5040865    3.9289672 
H    -4.8030654   -1.1486768    4.3222888 
H    -2.1854473   -1.4920729    4.9533301 
H    -0.9951163    0.9520442    4.9498633 
H     0.3106558    2.9831084   -1.1310107 
C    -1.5560292    4.9620010   -1.5328222 
C    -1.3529250    4.0416672   -0.3121961 
C    -0.6887039    2.7130771   -0.7367916 
C    -1.4546256    2.0198170   -1.8829907 
C    -1.6658485    2.9662967   -3.0777379 
C    -2.3548488    4.2698057   -2.6471075 
H    -0.5636755    5.2593782   -1.9231019 
H    -2.0607342    5.8899566   -1.2091070 
H    -2.3323897    3.8538374    0.1639732 
H    -0.7258797    4.5638960    0.4292894 
H    -0.8935091    1.1227505   -2.2026944 
H    -2.4361699    1.6651809   -1.5168674 
H    -0.6830070    3.2066343   -3.5292720 
H    -2.2554628    2.4505655   -3.8571762 
H    -3.3756234    4.0409509   -2.2813920 
H    -2.4738336    4.9468332   -3.5118020 
H     1.1489395    3.3364164    1.2029135 
C     2.5793388    2.8666410    3.5113658 
C     1.8183781    1.8643671    2.6245569 
C     0.6831791    2.5690659    1.8541905 
C    -0.2812470    3.2512362    2.8424179 
C     0.4652326    4.2467011    3.7487443 
C     1.6277912    3.5705684    4.4930275 
H     3.0676802    3.6257662    2.8692856 
H     3.3857013    2.3454379    4.0580885 
H     1.3849895    1.0794626    3.2701609 
H     2.5026133    1.3567584    1.9195379 
H    -1.1066017    3.7576631    2.3169086 
H    -0.7466970    2.4585700    3.4468327 
H     0.8574105    5.0775127    3.1292873 
H    -0.2439400    4.6964202    4.4672162 
H     1.2202513    2.8223971    5.2020491 
H     2.1794440    4.3105558    5.0996472 
H    -2.0702944   -3.0840808   -0.3620957 
C    -2.1415691   -4.2201425   -2.9116398 
C    -0.9294235   -3.7696351   -2.0740466 
C    -1.3313365   -2.6631603   -1.0742617 
C    -1.9877180   -1.4817864   -1.8208993 
C    -3.2012523   -1.9369552   -2.6463636 
C    -2.8118578   -3.0436857   -3.6380200 
H    -2.8806583   -4.7099192   -2.2467031 
H    -1.8128353   -4.9855347   -3.6375254 
H    -0.1431002   -3.3866129   -2.7461257 
H    -0.5085663   -4.6445769   -1.5516973 
H    -2.2825084   -0.6937143   -1.1097114 
H    -1.2270376   -1.0422915   -2.4946567 
H    -3.9875757   -2.3093573   -1.9602317 
H    -3.6320170   -1.0688369   -3.1780114 
H    -2.1052240   -2.6294890   -4.3831467 
H    -3.6978529   -3.3932399   -4.1976299 
H     1.4017197   -3.7942337   -0.8006616 
C     1.4961523   -5.9095240    0.9375444 
C     0.5700873   -4.6792046    0.9935512 
C     1.2145617   -3.4881628    0.2476796 
C     2.5886318   -3.1478197    0.8673047 
C     3.5181870   -4.3744157    0.8055266 
C     2.8887853   -5.5905388    1.5063985 
H     1.5920132   -6.2377836   -0.1162843 
H     1.0354901   -6.7480145    1.4898912 
H     0.4034268   -4.3999856    2.0517165 
H    -0.4198704   -4.9269203    0.5704473 
H     3.0421435   -2.2868762    0.3462915 
H     2.4645105   -2.8437063    1.9215277 
H     3.7185561   -4.6255340   -0.2550256 
H     4.4934952   -4.1276619    1.2620208 
H     2.7977539   -5.3763863    2.5897525 
H     3.5502859   -6.4701586    1.4142863 
H    -1.2802162   -2.7149338    1.9186882 
C     0.2575425   -1.4315249    2.7584809 
H    -0.2455662   -0.9497580    3.6100743 
H     0.7652509   -2.3411329    3.1167017 
H     1.0269853   -0.7385178    2.3799426 
