112
Energy =
C     1.7017533   -0.0599554   -2.7775033 
C     2.3217977    1.1238472   -2.2644339 
C     3.2166175    1.0421271   -1.1761500 
H     2.0172533    2.1087347   -2.6401317 
Pd    1.1188885    0.2611574   -0.6376124 
P     0.8233884    1.3632952    1.3892512 
P    -0.6031715   -1.3097938   -0.3776516 
H     2.2869397   -0.9867876   -2.7010625 
H     3.6396357    0.0477661   -0.9627925 
C    -1.2201382   -0.0376588   -5.9492249 
C    -1.0536468    1.0996821   -5.1412311 
C    -0.1173851    1.0972121   -4.1023109 
C     0.6931895   -0.0364797   -3.8556589 
C     0.5204991   -1.1690200   -4.6849328 
C    -0.4289551   -1.1722034   -5.7147302 
H    -1.9581786   -0.0360184   -6.7576439 
H    -1.6647612    1.9908841   -5.3178851 
H    -0.0194329    1.9856019   -3.4686770 
H     1.1496172   -2.0510321   -4.5272309 
H    -0.5416835   -2.0600410   -6.3456536 
C     5.4547176    4.2041418    0.6816062 
C     5.8526619    2.8652993    0.8131062 
C     5.0986398    1.8490321    0.2149734 
C     3.9476647    2.1518471   -0.5505620 
C     3.5694240    3.5082917   -0.6894352 
C     4.3092117    4.5199205   -0.0704883 
H     6.0361671    5.0007962    1.1570244 
H     6.7465631    2.6104932    1.3915206 
H     5.4014517    0.8033110    0.3365851 
H     2.6825287    3.7757627   -1.2698202 
H     3.9922870    5.5621754   -0.1775502 
Fe   -3.0922686   -1.1617851    2.3771415 
C    -1.3529990   -1.3836562    1.2947626 
C    -1.2287428   -0.3670053    2.3332082 
C    -1.4879603   -1.0003173    3.6029581 
C    -1.8028205   -2.3784787    3.3706321 
C    -1.7455995   -2.6142597    1.9605910 
C    -4.4455007    0.3719447    2.2443930 
C    -4.7247383   -0.6156054    1.2437330 
C    -4.9547073   -1.8714627    1.8953064 
C    -4.8309805   -1.6580311    3.3094366 
C    -4.5179654   -0.2719549    3.5253334 
C    -0.9020012    1.0891312    2.1273218 
H    -1.4866235   -0.5072729    4.5758194 
H    -2.0829181   -3.1084928    4.1320450 
H    -1.9440378   -3.5695936    1.4729535 
H    -4.2260091    1.4259198    2.0623695 
H    -4.7634019   -0.4416402    0.1702891 
H    -5.1849201   -2.8187212    1.4045107 
H    -4.9352824   -2.4181765    4.0857414 
H    -4.3469251    0.2002051    4.4947128 
H    -1.5237150    1.4618637    1.2913065 
C    -1.1538488    1.9489557    3.3744574 
H    -2.1798558    1.7710206    3.7395358 
H    -0.4487567    1.6969109    4.1847578 
H    -1.0510782    3.0210553    3.1459136 
H    -0.6730672   -3.7222256   -0.1802864 
C     1.8932261   -4.5826327    0.4999031 
C     1.3044383   -3.1612213    0.5155740 
C     0.1347575   -3.0313844   -0.4872911 
C     0.5823362   -3.4299822   -1.9047884 
C     1.1594117   -4.8581085   -1.9127387 
C     2.3217638   -4.9996702   -0.9164484 
H     1.1306577   -5.2920805    0.8775414 
H     2.7484199   -4.6384432    1.1972272 
H     2.0886861   -2.4269768    0.2371349 
H     0.9698977   -2.8944583    1.5338768 
H    -0.2540499   -3.3521818   -2.6209860 
H     1.3615207   -2.7249437   -2.2433503 
H     0.3572247   -5.5753233   -1.6496042 
H     1.4904515   -5.1172025   -2.9345868 
H     3.1629237   -4.3573027   -1.2461433 
H     2.7004341   -6.0371521   -0.9137016 
H    -1.3727682   -1.2916255   -2.6222539 
C    -3.6588593    0.3462131   -2.7129290 
C    -2.5753180    0.2002474   -1.6289505 
C    -1.9307243   -1.2018779   -1.6688580 
C    -2.9805954   -2.3269035   -1.5839546 
C    -4.0351038   -2.1680024   -2.6961625 
C    -4.7020942   -0.7832457   -2.6599175 
H    -3.1639675    0.3296882   -3.7014055 
H    -4.1503784    1.3316005   -2.6183493 
H    -3.0044364    0.3659113   -0.6228218 
H    -1.7902662    0.9664933   -1.7700946 
H    -2.4943469   -3.3153583   -1.6708486 
H    -3.4589057   -2.2918214   -0.5870288 
H    -3.5401856   -2.3073516   -3.6773098 
H    -4.7946186   -2.9654168   -2.6070305 
H    -5.3113151   -0.6926671   -1.7394884 
H    -5.4090318   -0.6806576   -3.5023431 
C     4.0452406    0.4297655    4.5998230 
C     2.9245689   -0.4021288    4.4461658 
C     1.9405764   -0.0932000    3.4992639 
C     2.0580299    1.0691508    2.7021912 
C     3.1993920    1.8870142    2.8441502 
C     4.1813306    1.5673772    3.7926025 
H     4.8129422    0.1860241    5.3414163 
H     2.8167446   -1.2997554    5.0639935 
H     1.0823082   -0.7607743    3.3780072 
H     3.3335170    2.7688859    2.2122492 
H     5.0593575    2.2139666    3.8910039 
C     0.4102939    5.8875075    0.3688660 
C     0.9385892    5.5267112    1.6176391 
C     1.0912398    4.1757074    1.9602727 
C     0.7362127    3.1677191    1.0408759 
C     0.1857844    3.5399065   -0.2052425 
C     0.0210710    4.8903122   -0.5388976 
H     0.2931795    6.9442569    0.1074273 
H     1.2289522    6.3012664    2.3349965 
H     1.4856524    3.9121926    2.9458899 
H    -0.1051695    2.7567797   -0.9178773 
H    -0.4058183    5.1644365   -1.5093267 
