106
Energy =
C    -1.7510825   -1.4088361   -2.3732875 
C    -0.4722015   -1.7279314   -2.9313684 
C     0.3235309   -2.7526885   -2.3668684 
H    -0.0377767   -1.0659436   -3.6905266 
Pd   -0.1649657   -1.1164001   -0.8496853 
P     1.9352233   -0.9486485    0.1373577 
P    -1.2221409    0.3860159    0.5840676 
H    -2.3116450   -2.2405303   -1.9223594 
H    -0.1970531   -3.5089959   -1.7580860 
C    -4.2011173    1.8954507   -3.6471902 
C    -2.8116862    1.9402014   -3.8462473 
C    -2.0037454    0.8823398   -3.4195937 
C    -2.5704233   -0.2579224   -2.8033106 
C    -3.9674111   -0.2800627   -2.5918773 
C    -4.7741490    0.7863689   -3.0072820 
H    -4.8316558    2.7257614   -3.9807957 
H    -2.3529391    2.8130122   -4.3216231 
H    -0.9181995    0.9531126   -3.5473995 
H    -4.4237510   -1.1495888   -2.1073353 
H    -5.8556881    0.7454022   -2.8409906 
C     4.3550459   -3.8495598   -3.3721769 
C     3.6188076   -4.5943305   -2.4389680 
C     2.3002418   -4.2345810   -2.1419409 
C     1.6929205   -3.1152903   -2.7579518 
C     2.4470701   -2.3784982   -3.7010765 
C     3.7602614   -2.7470544   -4.0077810 
H     5.3857794   -4.1312007   -3.6112101 
H     4.0701862   -5.4605545   -1.9446995 
H     1.7279660   -4.8233268   -1.4180685 
H     2.0073653   -1.5110935   -4.2013419 
H     4.3251620   -2.1678904   -4.7447118 
Fe    2.7410822    0.6185512    3.2401876 
C     2.1108605    0.4046266    1.3423578 
C     1.0371464    0.9549127    2.1638027 
C     1.5262000    2.1848901    2.7260547 
C     2.8651273    2.4083700    2.2661820 
C     3.2331562    1.3192802    1.4125869 
C     3.2045658    0.8321964    5.2222247 
C     2.3223768   -0.2831851    5.0375530 
C     2.9519180   -1.2062882    4.1365941 
C     4.2308155   -0.6624320    3.7691806 
C     4.3859990    0.5958428    4.4421598 
C    -0.3691274    0.4315804    2.2821363 
H     0.9652432    2.8294046    3.4056098 
H     3.5086655    3.2433347    2.5491189 
H     4.1887172    1.1843175    0.9032583 
H     3.0037504    1.7143789    5.8327480 
H     1.3422900   -0.3991145    5.5031298 
H     2.5304455   -2.1477239    3.7788536 
H     4.9408671   -1.1100472    3.0731014 
H     5.2389728    1.2709418    4.3509943 
H    -0.9577528    1.1451662    2.8848105 
C    -0.4806139   -0.9755854    2.8956010 
H    -0.1200846   -0.9505263    3.9347937 
H    -1.5230948   -1.3366764    2.8918504 
H     0.1439717   -1.6977687    2.3424919 
C     3.0852208   -0.4370959   -1.1661823 
C     2.9073219    0.5100560   -2.1574118 
C     4.1661599    0.6367326   -2.8253512 
C     5.0172886   -0.2446011   -2.2026381 
H     1.9803988    1.0453215   -2.3686003 
H     4.4072919    1.2864550   -3.6667712 
H     6.0586336   -0.5233484   -2.3569146 
O     4.3776436   -0.8939373   -1.1893561 
C     2.5793165   -2.4789310    0.8345986 
C     1.9053755   -3.6337169    1.1822984 
C     2.8765192   -4.5218429    1.7438741 
C     4.0738100   -3.8485024    1.6974787 
H     0.8396091   -3.8160116    1.0400612 
H     2.7126716   -5.5288243    2.1274821 
H     5.0899482   -4.1017495    1.9975416 
O     3.9086831   -2.6094230    1.1578930 
C    -0.9806183    4.5461228   -1.4294168 
C     0.2032916    3.8784033   -1.0609611 
C     0.0962664    2.6318705   -0.4224843 
C    -1.1664031    2.0676737   -0.1407507 
C    -2.3331388    2.7441243   -0.5443490 
C    -2.2515078    3.9959652   -1.1826707 
H    -0.9094192    5.5184912   -1.9325822 
H     1.0120401    2.1033996   -0.1445907 
H    -3.3165909    2.2897843   -0.3914114 
C    -5.5718464   -0.5178284    1.8684862 
C    -4.9989888    0.7142190    2.2416413 
C    -3.6826576    0.9903526    1.8309450 
C    -2.9592996    0.0565123    1.0610304 
C    -3.5497783   -1.1736558    0.7251086 
C    -4.8666565   -1.4755732    1.1172397 
H    -6.6006791   -0.7386147    2.1785139 
H    -3.2262620    1.9480501    2.1075565 
H    -2.9724496   -1.9064173    0.1515650 
C     1.5616762    4.4927701   -1.3198804 
H     2.3628475    3.7365888   -1.2633774 
H     1.6039600    4.9771652   -2.3106953 
H     1.7862087    5.2708887   -0.5664061 
C    -3.5045312    4.7351452   -1.5965132 
H    -4.4031380    4.1127489   -1.4587322 
H    -3.6308513    5.6575572   -1.0003817 
H    -3.4559293    5.0377591   -2.6575206 
C    -5.7756802    1.7031920    3.0826289 
H    -5.3295005    2.7103878    3.0397013 
H    -6.8254461    1.7737718    2.7499851 
H    -5.7898024    1.3866205    4.1423829 
C    -5.5192294   -2.7788365    0.7122688 
H    -6.0846200   -3.2239824    1.5488107 
H    -6.2364248   -2.6151064   -0.1142464 
H    -4.7741600   -3.5153134    0.3680510 
