94
Energy =
C    -2.3103058    1.4237299    1.2276112 
C    -1.3308219    1.3041604    2.2613223 
C    -0.1173456    2.0272668    2.1775283 
H    -1.4543152    0.5385206    3.0369994 
Pd   -0.3896848    0.6595177    0.3800167 
P     1.8268036   -0.0541574    0.2055856 
P    -1.3128071   -0.0319258   -1.6480852 
H    -2.3655236    2.3805418    0.6922032 
H    -0.1092921    2.8976345    1.5022952 
C    -5.8982648   -0.9487985    1.0491105 
C    -4.7431473   -1.4737501    1.6519519 
C    -3.5685115   -0.7181618    1.7021069 
C    -3.5263593    0.5895170    1.1627147 
C    -4.6903272    1.0973050    0.5450950 
C    -5.8650474    0.3368685    0.4906926 
H    -6.8162608   -1.5439659    1.0084670 
H    -4.7581933   -2.4830128    2.0763569 
H    -2.6649628   -1.1542991    2.1422185 
H    -4.6696539    2.1022545    0.1134393 
H    -6.7597853    0.7523156    0.0152987 
C     3.1752336    2.0508464    4.9326804 
C     3.1680380    2.8972241    3.8144918 
C     2.0905206    2.8683282    2.9226901 
C     1.0004782    1.9905584    3.1290390 
C     1.0287282    1.1338325    4.2538132 
C     2.1024577    1.1690632    5.1465734 
H     4.0136247    2.0749632    5.6363558 
H     4.0006774    3.5865311    3.6403471 
H     2.0865249    3.5322329    2.0513557 
H     0.2033916    0.4388973    4.4361031 
H     2.1062599    0.5038164    6.0158852 
Fe    1.3997953   -1.7218630   -2.7046164 
C     2.1103819   -1.5092251   -0.8441538 
C     3.1972873   -1.7704176   -1.7611906 
H     4.0426125   -1.1077299   -1.9483987 
C     2.9431069   -3.0346707   -2.3873882 
H     3.5626225   -3.4995410   -3.1565727 
C     1.7163769   -3.5621257   -1.8623801 
H     1.2413366   -4.4976462   -2.1632057 
C     1.1964828   -2.6291776   -0.9071086 
C    -0.2185022   -0.5711190   -2.9932563 
C    -0.3232062   -1.7831800   -3.7758555 
H    -1.1119491   -2.5316188   -3.6833539 
C     0.8022053   -1.8268019   -4.6633034 
H     1.0275271   -2.6304759   -5.3666388 
C     1.5993923   -0.6544789   -4.4416152 
H     2.5356301   -0.4118513   -4.9474349 
C     0.9805693    0.1249138   -3.4101150 
H     0.2589548   -2.7196481   -0.3554907 
H     1.3524617    1.0653428   -2.9993942 
C     2.5786472   -0.5703400    1.7712919 
C     3.8090647   -0.4050666    2.3675375 
C     3.8064429   -1.2382874    3.5304654 
C     2.5804627   -1.8631137    3.5766610 
H     4.6144965    0.2297205    2.0024141 
H     4.6121651   -1.3571523    4.2549776 
O     1.8223845   -1.4611584    2.5063798 
C     1.9392049   -2.8057703    4.5342226 
H     1.5789977   -3.7143312    4.0196438 
H     2.6628673   -3.1035677    5.3080361 
H     1.0701931   -2.3355571    5.0316623 
C     2.9165469    1.2426482   -0.3984882 
C     2.6231513    2.5206760   -0.8282403 
C     3.8650665    3.1230068   -1.2034435 
C     4.8465072    2.1808358   -0.9820112 
H     1.6270810    2.9641126   -0.8670063 
H     4.0212488    4.1298433   -1.5905461 
O     4.2775421    1.0325190   -0.4931954 
C     6.3250490    2.1702265   -1.1622812 
H     6.8400390    1.9839348   -0.2027122 
H     6.6330538    1.3758389   -1.8657074 
H     6.6607815    3.1401658   -1.5587524 
C    -2.5019647   -1.3822746   -1.4728060 
C    -3.7737354   -1.5960885   -1.9575790 
C    -4.1844844   -2.8740180   -1.4625650 
C    -3.1471987   -3.3630038   -0.7005076 
H    -4.3395546   -0.9105115   -2.5875211 
H    -5.1395852   -3.3695759   -1.6361053 
C    -2.2648758    1.2594119   -2.4877166 
C    -2.6152703    1.4251511   -3.8123385 
C    -3.3302940    2.6603778   -3.8932440 
C    -3.3655414    3.1855138   -2.6196334 
H    -2.3769316    0.7384762   -4.6250865 
H    -3.7620715    3.1151546   -4.7849513 
O    -2.1176226   -2.4566638   -0.6964957 
O    -2.7135758    2.3407698   -1.7590378 
C    -2.9461070   -4.6035797    0.0980820 
H    -2.0561595   -5.1613759   -0.2451558 
H    -2.7989504   -4.3647398    1.1674519 
H    -3.8265269   -5.2569625    0.0034205 
C    -3.9401913    4.4293148   -2.0340406 
H    -4.7306365    4.1993219   -1.2960918 
H    -3.1633845    5.0226834   -1.5191378 
H    -4.3815461    5.0468944   -2.8306390 
