112
Energy =
C     2.6460520    1.4495143   -1.6962452 
C     1.6138860    1.3583386   -2.6518406 
C     0.4023548    2.1059949   -2.5479878 
H     1.6851331    0.5926259   -3.4353980 
Pd    0.6103322    0.7553243   -0.7812439 
P    -1.5980865    0.6547903    0.0082285 
P     1.3361274   -0.6759090    0.9213306 
H     2.6299978    2.3151487   -1.0160948 
H     0.4580368    3.0886949   -2.0570186 
C     6.4442985   -0.5581517   -1.9505861 
C     6.0498241    0.0715997   -0.7601416 
C     4.8150371    0.7226975   -0.6870703 
C     3.9359945    0.7450922   -1.7947865 
C     4.3512742    0.1098736   -2.9892342 
C     5.5929606   -0.5290547   -3.0662042 
H     7.4142347   -1.0620940   -2.0115459 
H     6.7068163    0.0542599    0.1150401 
H     4.5178778    1.2066022    0.2482077 
H     3.7127668    0.1393494   -3.8778425 
H     5.9021172   -1.0008635   -4.0046784 
C    -2.6609172    1.7062624   -5.5558828 
C    -2.0066736    0.5634956   -5.0650255 
C    -1.0166292    0.6871714   -4.0846885 
C    -0.6637736    1.9546373   -3.5643361 
C    -1.3295527    3.0928153   -4.0658979 
C    -2.3130882    2.9700383   -5.0575478 
H    -3.4347735    1.6106439   -6.3242565 
H    -2.2728530   -0.4276743   -5.4471723 
H    -0.5255637   -0.2099949   -3.6918938 
H    -1.0659215    4.0843128   -3.6813832 
H    -2.8110533    3.8667907   -5.4406291 
Fe   -0.3224679   -3.8085219    0.8298876 
C     0.1043823   -1.9072075    1.4447018 
C    -1.2926273   -1.9968375    1.0371661 
C    -1.9038099   -3.0137887    1.8523532 
C    -0.9265003   -3.5503088    2.7505681 
C     0.3183732   -2.8915041    2.4910482 
C     0.4589250   -4.3137536   -1.0007219 
C     1.2757420   -4.8259450    0.0652798 
C     0.4601857   -5.6912891    0.8650998 
C    -0.8586818   -5.7116460    0.2994409 
C    -0.8555206   -4.8679830   -0.8584358 
C     1.8274209    0.2576755    2.4412105 
C     1.6094591   -0.1944920    3.7584815 
C     2.0819740    0.5484140    4.8515842 
C     2.7743042    1.7502493    4.6468742 
C     2.9779158    2.2198873    3.3402259 
C     2.5028432    1.4816282    2.2492372 
C     2.8231993   -1.6837800    0.5373932 
C     3.0246518   -2.0905694   -0.7954459 
C     4.0991474   -2.9250542   -1.1237002 
C     4.9875333   -3.3498676   -0.1232640 
C     4.8038525   -2.9295256    1.2027437 
C     3.7291205   -2.0917198    1.5350713 
C    -2.0796145   -1.1607913    0.0406829 
H    -2.9471794   -3.3287106    1.7794637 
H    -1.0872520   -4.3561887    3.4690064 
H     1.2731581   -3.1101273    2.9729924 
H     0.7861543   -3.6320545   -1.7860275 
H     2.3235868   -4.5852014    0.2475101 
H     0.7771849   -6.2143143    1.7694349 
H    -1.7179335   -6.2577854    0.6931602 
H    -1.7067371   -4.6899087   -1.5159483 
H     1.0613350   -1.1217783    3.9407921 
H     2.6433541    1.8649539    1.2338315 
H     2.3367893   -1.7425062   -1.5741097 
H     3.6009157   -1.7535097    2.5687479 
H     1.9027053    0.1837165    5.8682414 
H     3.4992590    3.1672867    3.1694310 
H     4.2510807   -3.2337684   -2.1621794 
H     5.5031423   -3.2494928    1.9822687 
H     3.1408910    2.3269110    5.5020631 
H     5.8306351   -3.9992047   -0.3803058 
H    -3.1318496   -1.1885495    0.3739496 
C    -2.0071953   -1.6942107   -1.4052100 
H    -0.9555084   -1.7673595   -1.7290939 
H    -2.4518149   -2.6994676   -1.4442443 
H    -2.5499322   -1.0482187   -2.1156494 
H    -2.6882660    1.1942347   -2.0819889 
H    -2.9363557    1.8136524    1.6084599 
C    -3.9535494    3.6810866   -1.7872802 
C    -2.8833743    2.9985500   -0.9161405 
C    -2.9435678    1.4580825   -1.0391619 
C    -4.3654980    0.9356391   -0.7292944 
C    -5.4219257    1.6391978   -1.6038413 
C    -5.3599920    3.1654888   -1.4507091 
H    -3.7381502    3.4791952   -2.8515396 
H    -3.8930516    4.7756233   -1.6481754 
H    -3.0603145    3.2931151    0.1353745 
H    -1.8743816    3.3598758   -1.1838246 
H    -4.4275842   -0.1534423   -0.8976302 
H    -4.6030604    1.1102757    0.3392645 
H    -5.2448123    1.3698018   -2.6635688 
H    -6.4252102    1.2586185   -1.3408089 
H    -5.6190279    3.4418580   -0.4092519 
H    -6.1111711    3.6470139   -2.1016967 
C    -0.7437329    2.8966243    3.4524538 
C    -0.9305988    2.6016861    1.9489086 
C    -1.9092021    1.4125844    1.7035720 
C    -1.9267861    0.4522257    2.9084978 
C    -2.4687978    1.1812631    4.1645664 
C    -2.0566341    2.6741986    4.2152819 
H    -0.3753104    3.9292048    3.5813010 
H     0.0364793    2.2331630    3.8665334 
H     0.0499361    2.3799709    1.4886244 
H    -1.3185945    3.4981524    1.4342542 
H    -2.5473448   -0.4346886    2.7049551 
H    -0.9068360    0.0812612    3.0961547 
H    -3.5703280    1.0968527    4.1941985 
H    -2.0919508    0.6526258    5.0586697 
H    -1.9655236    3.0089339    5.2629817 
H    -2.8463159    3.3019621    3.7590786 
