98
Energy =
C    -1.4046999   -1.7326512   -2.2017522 
C    -0.9388411   -0.5774966   -2.8769421 
C     0.4479379   -0.3191801   -3.0113059 
H    -1.6608708    0.1754066   -3.2152415 
Pd   -0.1545857   -0.3832175   -0.8122951 
P     1.5361315    1.0624121   -0.0110563 
P    -1.0972005   -1.1329329    1.2111181 
H    -0.7057539   -2.5780991   -2.1213336 
H     1.1195973   -1.1863429   -2.9279161 
C    -5.5378470   -2.8660548   -1.7517007 
C    -5.2108551   -1.5276721   -2.0278104 
C    -3.8745690   -1.1441908   -2.1818796 
C    -2.8284738   -2.0887330   -2.0579150 
C    -3.1779645   -3.4371662   -1.8074763 
C    -4.5158165   -3.8217709   -1.6529871 
H    -6.5843675   -3.1627244   -1.6290867 
H    -6.0034532   -0.7784190   -2.1236459 
H    -3.6441621   -0.0965598   -2.4000845 
H    -2.3872751   -4.1935525   -1.7484965 
H    -4.7606547   -4.8716629   -1.4623639 
C     2.2180843    3.0411600   -5.0307277 
C     0.8853232    3.1188373   -4.5908069 
C     0.2921326    2.0333280   -3.9391138 
C     1.0183753    0.8389855   -3.7179636 
C     2.3532513    0.7700318   -4.1806791 
C     2.9486821    1.8607922   -4.8265978 
H     2.6813728    3.8956079   -5.5342487 
H     0.3095831    4.0365278   -4.7488010 
H    -0.7347029    2.1265802   -3.5707806 
H     2.9261764   -0.1519993   -4.0319503 
H     3.9836460    1.7876232   -5.1760472 
Fe    0.9519277    0.5480603    3.2707603 
C    -0.0478488   -1.0832324    2.6978000 
C    -0.4122738   -0.7255957    4.0557399 
H    -1.4090611   -0.4623268    4.4125429 
C     0.7758582   -0.7454192    4.8574803 
H     0.8317159   -0.4903635    5.9171584 
C     1.8768519   -1.1233003    4.0220616 
H     2.9195760   -1.2069881    4.3329633 
C     1.3779945   -1.3397453    2.6965088 
C     1.3533166    1.6966465    1.6852889 
C     2.3731002    1.8730734    2.7024202 
H     3.4396841    1.6708250    2.5952207 
C     1.7357039    2.3408572    3.8981742 
H     2.2342239    2.5376929    4.8488553 
C     0.3323688    2.4701373    3.6390764 
H    -0.4268584    2.7831578    4.3577892 
C     0.0913747    2.0817662    2.2812463 
H     1.9696966   -1.6278692    1.8267280 
H    -0.8757126    2.0653212    1.7782397 
C     2.0122447    2.5922289   -0.9857773 
C     3.4918758    2.7911642   -0.6018129 
C     4.1679331    1.4136008   -0.7108413 
C     3.2775385    0.3321293   -0.0301782 
H     1.9876924    2.2363061   -2.0289501 
H     3.9727611    3.5296798   -1.2687564 
H     3.5735444    3.1833185    0.4284687 
H     4.2748807    1.1545575   -1.7809046 
H     5.1814824    1.4191107   -0.2748324 
H     3.5529669    0.2225796    1.0339763 
C    -1.8048165   -2.8725381    1.3028901 
C    -2.9610476   -2.7174287    2.3101186 
C    -3.7207141   -1.4388531    1.9240158 
C    -2.7029570   -0.2816956    1.7253362 
H    -2.2480483   -3.0500001    0.3076208 
H    -3.6187274   -3.6051812    2.2837669 
H    -2.5582341   -2.6418936    3.3385639 
H    -4.2526045   -1.6117670    0.9690165 
H    -4.4798374   -1.1667937    2.6772434 
H    -2.4819124    0.1972154    2.6962708 
C    -3.1662275    0.8025287    0.7348731 
H    -2.3548106    1.5392043    0.5837540 
H    -3.3305084    0.3294978   -0.2484945 
C    -4.4425560    1.5249740    1.1848830 
H    -4.7182458    2.3170502    0.4675501 
H    -5.2961459    0.8288768    1.2586168 
H    -4.3062223    1.9977293    2.1746601 
C    -0.7854745   -3.9764893    1.6126229 
H    -0.2972440   -3.7655894    2.5824998 
H    -1.3446730   -4.9216778    1.7500953 
C     0.2732085   -4.1668417    0.5187216 
H    -0.1899836   -4.4701933   -0.4373352 
H     0.8311382   -3.2302004    0.3303220 
H     1.0037587   -4.9440105    0.7991470 
C     1.0619320    3.8076803   -0.8810198 
H     0.0175486    3.4405632   -0.8418226 
H     1.1411111    4.3614888   -1.8348047 
C     1.3215539    4.7823501    0.2765630 
H     2.3115500    5.2608766    0.1810400 
H     0.5653655    5.5860925    0.2693531 
H     1.2784868    4.2890970    1.2611837 
C     3.3686970   -1.0556468   -0.6937513 
H     3.1167551   -0.9554155   -1.7654356 
H     2.5986919   -1.7244174   -0.2636054 
C     4.7533974   -1.6995146   -0.5435516 
H     4.7774327   -2.6971429   -1.0144076 
H     5.5389006   -1.0854856   -1.0175329 
H     5.0187041   -1.8206876    0.5224748 
