124
Energy =
C     2.9864134   -0.8531610   -1.7152273 
C     2.9177173    0.5663328   -1.7717569 
C     3.0589013    1.3563359   -0.6104992 
H     2.6352554    1.0543876   -2.7127271 
Pd    1.2728035   -0.0780363   -0.4360883 
P    -0.3181560    1.3957933    0.5308189 
P     0.0196077   -2.0264023   -0.0448856 
H     3.5986412   -1.2843862   -0.9118313 
H     3.5660754    0.8932682    0.2498023 
C     2.3969645   -3.4629062   -5.0948207 
C     1.9796101   -2.1232828   -5.1668973 
C     2.1670802   -1.2644125   -4.0796553 
C     2.7874601   -1.7198618   -2.8922603 
C     3.2282669   -3.0617292   -2.8476695 
C     3.0277020   -3.9267834   -3.9304943 
H     2.2412475   -4.1353774   -5.9443962 
H     1.4970525   -1.7487159   -6.0756527 
H     1.8047482   -0.2334969   -4.1508048 
H     3.7429097   -3.4251631   -1.9528432 
H     3.3756764   -4.9633343   -3.8690335 
C     2.9103035    5.6511200   -0.4014166 
C     3.5930543    4.9076270    0.5726747 
C     3.6422388    3.5107292    0.4835390 
C     3.0129157    2.8275724   -0.5815632 
C     2.3532506    3.5929596   -1.5715330 
C     2.2972754    4.9868888   -1.4782756 
H     2.8633704    6.7424435   -0.3297664 
H     4.0868446    5.4168854    1.4066381 
H     4.1697927    2.9338680    1.2510193 
H     1.8621036    3.0921074   -2.4114645 
H     1.7718223    5.5609018   -2.2487793 
Fe   -2.5595709    0.2948091    3.2951516 
C    -1.7394754    0.6180009    1.3906937 
C    -1.8584118   -0.8034786    1.6937335 
C    -3.2429781   -1.0780650    1.9748337 
C    -3.9873317    0.1398202    1.8672450 
C    -3.0667378    1.1879187    1.5501328 
C    -2.3287621    1.6874124    4.7977720 
C    -3.6466724    1.1292042    4.8110435 
C    -3.5253364   -0.2894875    4.9926718 
C    -2.1311893   -0.6065399    5.0981682 
C    -1.3912892    0.6142651    4.9756858 
C    -0.7908697   -1.8735358    1.6534850 
H    -3.6460130   -2.0570251    2.2441485 
H    -5.0561044    0.2606756    2.0539715 
H    -3.3275510    2.2389406    1.4445774 
H    -2.0880952    2.7449945    4.6908792 
H    -4.5790008    1.6812936    4.6786028 
H    -4.3494810   -1.0048848    5.0210210 
H    -1.7160195   -1.6048079    5.2476966 
H    -0.3069103    0.7136343    5.0351732 
H    -0.2166202    3.2241312   -0.9599482 
C    -2.6090599    3.9196246   -2.1303795 
C    -2.3650636    3.0076473   -0.9110656 
C    -0.9507868    2.3935270   -0.9620411 
C    -0.7770735    1.6198703   -2.2890249 
C    -1.0270484    2.5165206   -3.5132551 
C    -2.4191673    3.1629937   -3.4534451 
H    -1.9051356    4.7744803   -2.0892754 
H    -3.6266451    4.3453777   -2.0700506 
H    -3.1131143    2.1933897   -0.9110354 
H    -2.5138079    3.5877315    0.0141329 
H     0.2327162    1.1688972   -2.3370607 
H    -1.4887666    0.7758923   -2.3101128 
H    -0.2557888    3.3116590   -3.5500312 
H    -0.9121220    1.9198097   -4.4366569 
H    -3.1906778    2.3718889   -3.5360827 
H    -2.5680272    3.8418093   -4.3118979 
H     1.0945867    3.2527715    0.9806757 
C     1.8618173    3.0679438    3.7135070 
C     1.2261712    2.0369299    2.7645580 
C     0.4024929    2.7065514    1.6476486 
C    -0.6286319    3.7050661    2.2077602 
C     0.0388218    4.7281571    3.1471723 
C     0.8171177    4.0412791    4.2804957 
H     2.6244862    3.6456803    3.1583356 
H     2.3908252    2.5439273    4.5302105 
H     0.5557173    1.3664670    3.3313541 
H     2.0077162    1.3980292    2.3117610 
H    -1.1301740    4.2379702    1.3818268 
H    -1.4045984    3.1401609    2.7546986 
H     0.7341290    5.3569164    2.5571488 
H    -0.7306153    5.4062600    3.5589323 
H     0.1141731    3.4882056    4.9332893 
H     1.3072251    4.7967261    4.9201342 
H    -1.5187141   -3.5340802   -1.1600527 
C    -1.5784730   -2.6755958   -3.8693692 
C    -0.6151199   -2.3295463   -2.7237490 
C    -1.2793391   -2.4668015   -1.3350000 
C    -2.5956295   -1.6673832   -1.2575830 
C    -3.5360543   -2.0001846   -2.4315739 
C    -2.8541303   -1.8244734   -3.7963421 
H    -1.8470443   -3.7489103   -3.8137607 
H    -1.0586826   -2.5303713   -4.8331256 
H    -0.2682629   -1.2860025   -2.8406623 
H     0.2870732   -2.9618571   -2.7903636 
H    -3.1129023   -1.8772267   -0.3105862 
H    -2.3742521   -0.5838587   -1.2521342 
H    -3.8772427   -3.0495591   -2.3319493 
H    -4.4400909   -1.3686589   -2.3596303 
H    -2.5925425   -0.7572406   -3.9457039 
H    -3.5496075   -2.0954201   -4.6105390 
H     1.1307204   -3.8615237   -1.0494430 
C     0.9080515   -6.1561400    0.4579406 
C     0.1647287   -4.8182784    0.6383515 
C     0.9777930   -3.6516433    0.0285473 
C     2.3773573   -3.5888759    0.6774202 
C     3.1219337   -4.9261478    0.4981260 
C     2.3149068   -6.1008894    1.0736876 
H     0.9850666   -6.3828928   -0.6235225 
H     0.3164699   -6.9711561    0.9121393 
H     0.0203886   -4.6352288    1.7209631 
H    -0.8415497   -4.8843861    0.1869948 
H     2.9593944   -2.7563224    0.2510139 
H     2.2851753   -3.3804200    1.7574594 
H     3.2992880   -5.1056970   -0.5802358 
H     4.1152805   -4.8644719    0.9777208 
H     2.2281671   -5.9816105    2.1718597 
H     2.8472651   -7.0529662    0.9010662 
H    -1.2984964   -2.8341565    1.8478109 
C     0.3234416   -1.6730643    2.7012377 
H    -0.1340315   -1.3919812    3.6596853 
H     0.9117553   -2.5916932    2.8478979 
H     1.0116883   -0.8628926    2.4022886 
