94
Energy =
C     0.1943045    1.4544399    2.7278560 
C    -0.6335089    2.3044310    1.9570891 
C    -1.9081640    1.8609920    1.4867487 
H    -0.2316922    3.2516053    1.5760634 
Pd   -0.3257972    0.5221029    0.7120089 
P    -1.5104805   -0.4325924   -1.0400535 
P     1.7036494   -0.5712797    0.3127038 
H    -0.2924200    0.6141532    3.2463226 
H    -2.4597425    1.1449245    2.1142868 
C     4.1116593    2.3429617    4.2610627 
C     3.5036989    3.2306294    3.3580569 
C     2.2378942    2.9515959    2.8364373 
C     1.5439732    1.7791048    3.2152799 
C     2.1689926    0.8952646    4.1249282 
C     3.4398840    1.1716149    4.6402275 
H     5.1038373    2.5656363    4.6667880 
H     4.0234252    4.1460959    3.0571305 
H     1.7853252    3.6537354    2.1296232 
H     1.6440963   -0.0171257    4.4230416 
H     3.9049289    0.4750426    5.3456330 
C    -4.3398712    4.1779733   -1.2060161 
C    -4.9324569    3.4022306   -0.1995516 
C    -4.1350633    2.6440953    0.6662704 
C    -2.7294330    2.6545433    0.5483939 
C    -2.1450274    3.4318607   -0.4788140 
C    -2.9420744    4.1864221   -1.3450421 
H    -4.9634507    4.7672467   -1.8861187 
H    -6.0217426    3.3835300   -0.0902626 
H    -4.6018719    2.0391970    1.4511474 
H    -1.0568731    3.4198261   -0.6136340 
H    -2.4737141    4.7785427   -2.1383154 
Fe    1.1538679   -0.8919393   -3.0137648 
C    -0.6744662   -0.1602693   -2.6220051 
C    -0.7156465   -0.9806509   -3.8127482 
H    -1.3160496   -1.8821458   -3.9366935 
C     0.1921718   -0.4114187   -4.7631951 
H     0.4144297   -0.8164884   -5.7522065 
C     0.7944750    0.7529093   -4.1781643 
H     1.5504885    1.3854287   -4.6467241 
C     0.2673212    0.9165397   -2.8561677 
C     2.1116032   -1.3421993   -1.2944512 
C     3.0371905   -0.7914746   -2.2612129 
H     3.6291572    0.1153637   -2.1320901 
C     3.0200670   -1.6367093   -3.4174887 
H     3.5927133   -1.4750137   -4.3324041 
C     2.0943531   -2.7056893   -3.1794451 
H     1.8411840   -3.5023320   -3.8813013 
C     1.5263527   -2.5330913   -1.8755230 
H     0.5407073    1.6898625   -2.1343076 
H     0.7978815   -3.1878430   -1.3973298 
C    -3.2186233   -0.0025064   -1.4320628 
C    -3.8080614    0.6154304   -2.5140245 
C    -5.2142474    0.6225036   -2.2520005 
C    -5.3982447    0.0161641   -1.0292527 
H    -3.2897060    1.0050690   -3.3896240 
H    -5.9996601    1.0292870   -2.8888504 
O    -4.1825426   -0.3619838   -0.5174177 
C    -6.5952402   -0.2679968   -0.1910470 
H    -6.5599249    0.3005874    0.7567700 
H    -7.5086809    0.0175138   -0.7343504 
H    -6.6565236   -1.3404294    0.0657653 
C    -1.5683805   -2.2129257   -0.7563689 
C    -1.2174476   -2.9650968    0.3463514 
C    -1.4370491   -4.3333498   -0.0094063 
C    -1.9153620   -4.3374209   -1.3032193 
H    -0.8336302   -2.5753012    1.2895775 
H    -1.2676988   -5.2121456    0.6127411 
O    -2.0044472   -3.0487868   -1.7615987 
C    -2.3372583   -5.4127615   -2.2436963 
H    -3.3960293   -5.2894885   -2.5340523 
H    -1.7325471   -5.3905164   -3.1682312 
H    -2.2152486   -6.3970374   -1.7671613 
C     3.0821728    0.5866638    0.5061668 
C     4.3451907    0.5077078    1.0462173 
C     4.9943043    1.7444084    0.7335654 
C     4.0934289    2.5058758    0.0238526 
H     4.7513389   -0.3378533    1.6006374 
H     6.0036406    2.0452763    1.0142959 
C     2.0359139   -1.9033922    1.4820035 
C     2.8503667   -3.0158065    1.4582157 
C     2.5870446   -3.7392570    2.6636593 
C     1.6214935   -3.0358452    3.3508908 
H     3.5469578   -3.2789014    0.6616790 
H     3.0511975   -4.6710397    2.9874434 
O     2.9190899    1.8077393   -0.1195442 
O     1.2736542   -1.9190488    2.6347954 
C     4.1270963    3.8814694   -0.5452312 
H     3.8583430    3.8791236   -1.6166104 
H     3.4124144    4.5442145   -0.0223079 
H     5.1363842    4.3065978   -0.4373563 
C     0.9230433   -3.2434431    4.6505180 
H     1.1505501   -2.4284107    5.3618935 
H    -0.1729229   -3.2720596    4.5141267 
H     1.2457642   -4.1944669    5.1001799 
