112
Energy =
C     0.4887825    1.4232003   -2.8932792 
C     0.9282926    2.4898292   -2.0531878 
C     2.0614829    2.3548629   -1.2203728 
H     0.2945161    3.3788669   -1.9495628 
Pd    0.4634454    0.7766324   -0.7445051 
P     0.7511272    0.7237942    1.5665784 
P    -0.7034970   -1.2546187   -0.9196848 
H     1.2577048    0.7321254   -3.2680540 
H     2.7742444    1.5548395   -1.4726048 
C    -3.0861138    1.5573626   -5.2982587 
C    -2.9737793    2.3836725   -4.1669032 
C    -1.8191517    2.3492589   -3.3785276 
C    -0.7376450    1.4986938   -3.7119023 
C    -0.8588395    0.6877414   -4.8634750 
C    -2.0227995    0.7099587   -5.6430222 
H    -3.9951332    1.5784377   -5.9077304 
H    -3.7995499    3.0470619   -3.8896290 
H    -1.7697038    2.9683212   -2.4761608 
H    -0.0240804    0.0401047   -5.1544819 
H    -2.0952500    0.0700250   -6.5286296 
C     3.7846563    5.3615717    1.3282510 
C     4.4106290    4.1162448    1.1592241 
C     3.8308634    3.1471037    0.3330842 
C     2.6042776    3.3926689   -0.3291782 
C     1.9790060    4.6464170   -0.1357841 
C     2.5698049    5.6218208    0.6734420 
H     4.2433848    6.1276105    1.9619401 
H     5.3592765    3.9031788    1.6625107 
H     4.3321164    2.1839470    0.1948378 
H     1.0259622    4.8691153   -0.6250622 
H     2.0747940    6.5898226    0.8006507 
Fe   -0.0226936   -2.0537185    3.6877603 
C    -0.3023406   -0.5020560    2.4073288 
C    -0.7374882   -1.7617855    1.8200114 
C    -1.7688786   -2.2968607    2.6736962 
C    -1.9533901   -1.4068009    3.7830136 
C    -1.0480673   -0.3073367    3.6335223 
C     1.2528172   -3.6584898    3.6287668 
C     1.9752625   -2.4564233    3.9205019 
C     1.4240864   -1.8849712    5.1179171 
C     0.3617640   -2.7402025    5.5671120 
C     0.2528031   -3.8347306    4.6440017 
C     0.1855841    2.3219325    2.2670483 
C     1.0700550    3.3274116    2.7027432 
C     0.5661131    4.5476665    3.1791965 
C    -0.8132243    4.7874683    3.2019166 
C    -1.6991251    3.8012119    2.7358279 
C    -1.2061258    2.5782740    2.2692985 
C     2.4731554    0.4323129    2.1193129 
C     3.3521378   -0.2164610    1.2296410 
C     4.6606290   -0.5282215    1.6272285 
C     5.1027917   -0.1792199    2.9125114 
C     4.2291059    0.4639759    3.8048471 
C     2.9157143    0.7596187    3.4170799 
C    -0.2270698   -2.3696644    0.5364544 
H    -2.2977153   -3.2395392    2.5271478 
H    -2.6384705   -1.5615542    4.6184206 
H    -0.9443771    0.5427168    4.3093487 
H     1.4327904   -4.3207455    2.7800300 
H     2.7943591   -2.0451696    3.3300297 
H     1.7520589   -0.9635841    5.6006651 
H    -0.2698918   -2.5752581    6.4419126 
H    -0.4757460   -4.6460489    4.6950045 
H     2.1522044    3.1741898    2.6633527 
H    -1.9027140    1.8122203    1.9157339 
H     3.0039389   -0.4763193    0.2223618 
H     2.2326770    1.2370035    4.1266673 
H     0.8766669   -2.2969059    0.5419265 
C    -0.6285448   -3.8472487    0.3947782 
H    -0.4523423   -4.3614053    1.3544820 
H    -1.6939359   -3.9688760    0.1361895 
H    -0.0271095   -4.3532905   -0.3740597 
H     1.2665285    5.3156528    3.5221226 
H    -2.7788870    3.9834214    2.7406285 
H     5.3364051   -1.0370566    0.9320597 
H     4.5702823    0.7268302    4.8114745 
H    -1.2002961    5.7411561    3.5752969 
H     6.1262528   -0.4137514    3.2224829 
H    -0.4085708   -1.3349513   -3.2372982 
C    -0.3360814   -3.7670504   -4.3689067 
C    -0.8039520   -3.4270596   -2.9401979 
C    -0.1409032   -2.1055570   -2.4872584 
C     1.3987274   -2.2546678   -2.4987961 
C     1.8956342   -2.6322856   -3.9066154 
C     1.1954938   -3.8962372   -4.4351228 
H    -0.6753838   -2.9713042   -5.0616120 
H    -0.8149263   -4.7041624   -4.7045134 
H    -0.5116140   -4.2498865   -2.2671089 
H    -1.9040963   -3.3608514   -2.8997946 
H     1.8784326   -1.3162983   -2.1568158 
H     1.6960382   -3.0417456   -1.7777899 
H     1.6949712   -1.7861551   -4.5936112 
H     2.9913046   -2.7741358   -3.8933765 
H     1.5099874   -4.7654468   -3.8242953 
H     1.5199644   -4.1057427   -5.4698446 
H    -2.9469946   -2.1427337   -0.5844712 
C    -4.6634444   -0.7136845   -2.3265248 
C    -3.1320585   -0.8642804   -2.3426011 
C    -2.5736781   -1.1579053   -0.9310464 
C    -3.0405382   -0.0615985    0.0591331 
C    -4.5717994    0.0822808    0.0702879 
C    -5.1179074    0.3688615   -1.3362166 
H    -5.1255197   -1.6825639   -2.0514108 
H    -5.0095397   -0.4744180   -3.3481903 
H    -2.6816048    0.0716666   -2.7123411 
H    -2.8500966   -1.6542531   -3.0562871 
H    -2.6748739   -0.2777849    1.0760390 
H    -2.5811245    0.8974598   -0.2558962 
H    -5.0214922   -0.8520122    0.4603957 
H    -4.8583684    0.8859333    0.7729370 
H    -4.7422385    1.3532230   -1.6788397 
H    -6.2203213    0.4363078   -1.3173269 
