134
Energy =
C    -0.3907006   -0.1586610    3.3018559 
C    -0.5752486    1.2231785    3.1177706 
C    -1.6983069    1.7163055    2.3804565 
H     0.1833068    1.9281359    3.4790408 
Pd   -0.4191733    0.5336147    1.0160337 
P    -1.0907226    1.3386661   -1.0564966 
P     1.1009688   -1.1328310    0.2506932 
H    -1.2524634   -0.8017420    3.0775320 
H    -2.5837918    1.0634536    2.3481001 
C     2.5612506   -2.0775869    5.7733937 
C     1.5273828   -2.8193161    5.1839678 
C     0.5888707   -2.1806416    4.3665038 
C     0.6620959   -0.7898872    4.1080199 
C     1.7193833   -0.0603812    4.7016861 
C     2.6502704   -0.6975255    5.5274928 
H     3.3004313   -2.5713085    6.4107899 
H     1.4516092   -3.8958794    5.3654868 
H    -0.2327654   -2.7609692    3.9352984 
H     1.8209785    1.0130920    4.5192558 
H     3.4587837   -0.1133248    5.9789164 
C    -2.6227395    5.8978562    1.9169659 
C    -1.2882613    5.4971622    2.1008871 
C    -0.9719784    4.1438408    2.2553465 
C    -1.9838705    3.1562595    2.2251079 
C    -3.3230534    3.5771885    2.0635375 
C    -3.6404130    4.9322368    1.9073940 
H    -2.8667000    6.9577727    1.7928484 
H    -0.4893017    6.2457360    2.1199816 
H     0.0753676    3.8507571    2.3823098 
H    -4.1214451    2.8275228    2.0679160 
H    -4.6853155    5.2352580    1.7835798 
Fe   -2.9637544   -3.5835455    0.1504564 
C    -1.3183527   -2.4363181    0.5231858 
C    -2.1347385   -1.7961604   -0.5082486 
C    -3.4555682   -1.6173334    0.0484694 
H    -4.3104378   -1.2201835   -0.4973517 
C    -3.4625316   -2.0766314    1.4054388 
H    -4.3224343   -2.0884195    2.0778216 
C    -2.1553021   -2.5873731    1.6933797 
H    -1.8468408   -3.0610319    2.6274186 
C    -2.5951257   -5.5853874    0.3748023 
H    -1.7567976   -6.0358502    0.9091561 
C    -2.6322427   -5.2463313   -1.0194767 
H    -1.8261671   -5.4073192   -1.7375135 
C    -3.9231553   -4.6843282   -1.3034644 
H    -4.2745498   -4.3217423   -2.2711210 
C    -4.6797666   -4.6739623   -0.0874533 
H    -5.6929554   -4.2864607    0.0339311 
C    -3.8607280   -5.2327734    0.9497209 
H    -4.1420353   -5.3446377    1.9986450 
C    -1.7720370   -1.3593695   -1.8987284 
C    -1.3388227   -0.0432448   -2.2607977 
C    -1.1058520    0.2497087   -3.6237972 
H    -0.7646608    1.2487400   -3.9090114 
C    -1.2960529   -0.7016145   -4.6315257 
H    -1.0987866   -0.4405541   -5.6749174 
C    -1.7209470   -1.9872920   -4.2837485 
H    -1.8585520   -2.7543819   -5.0511051 
C    -1.9454645   -2.2987473   -2.9384421 
H    -2.2687588   -3.2999462   -2.6551921 
C     2.0927142   -1.3310129   -1.3170211 
C     3.4405335   -0.9161003   -1.3464444 
H     3.9120749   -0.4621998   -0.4734116 
C     4.2191121   -1.0791936   -2.4983003 
C     3.6923817   -1.7066447   -3.6330959 
H     4.3187441   -1.8860470   -4.5104643 
C     2.3556256   -2.1252016   -3.6099904 
C     1.5498958   -1.9080852   -2.4816558 
H     0.5050856   -2.2172138   -2.5182864 
C     2.5093847   -1.0367072    1.4306499 
C     2.9799439    0.2619366    1.6905279 
H     2.4438651    1.1264072    1.2806235 
C     4.1285482    0.4606394    2.4671036 
C     4.7966691   -0.6315795    3.0301346 
H     5.6745587   -0.4777104    3.6621319 
C     4.2986874   -1.9254922    2.8082850 
C     3.1725753   -2.1362940    1.9998133 
H     2.8226181   -3.1582094    1.8308424 
C     0.1700110   -2.7584775    0.5320700 
H     0.4281065   -2.9582390    1.5882080 
C     0.6084746   -3.9743979   -0.3015565 
H     0.1911397   -4.8839980    0.1581869 
H     0.2320030   -3.9237233   -1.3335068 
H     1.7069837   -4.0712451   -0.3373640 
C     4.5696135    1.8834357    2.7200563 
F     5.6479166    1.9578633    3.5195548 
F     4.8589212    2.5216464    1.5590472 
F     3.5648774    2.5956069    3.3118258 
C     5.0078366   -3.1130732    3.4271194 
F     4.1604017   -4.1565458    3.6039512 
F     6.0218260   -3.5441735    2.6450755 
F     5.5324338   -2.7991306    4.6349861 
C     5.6387028   -0.5503746   -2.5061041 
F     6.4214984   -1.2253122   -3.3714120 
F     5.6656038    0.7589501   -2.8730540 
F     6.2026957   -0.6274960   -1.2778375 
C     1.7879194   -2.8382790   -4.8198402 
F     0.8085556   -3.7102466   -4.4661805 
F     1.2481052   -1.9705288   -5.7128098 
F     2.7407762   -3.5359236   -5.4722775 
H    -0.1533782    2.8512998   -2.7341166 
C     2.6371550    2.7577348   -2.5332060 
C     1.5754072    1.7769349   -2.0078010 
C     0.2270217    2.4735417   -1.7665526 
C     0.4088273    3.6705637   -0.8063358 
C     1.4793095    4.6504715   -1.3180714 
C     2.8197566    3.9431480   -1.5724272 
H     2.3286805    3.1303010   -3.5299257 
H     3.5903053    2.2203269   -2.6765508 
H     1.9234238    1.3600836   -1.0444541 
H     1.4584614    0.9266534   -2.7004985 
H    -0.5441890    4.2021877   -0.6434318 
H     0.7156996    3.2701992    0.1800965 
H     1.1240053    5.1163685   -2.2581876 
H     1.6011632    5.4702137   -0.5871561 
H     3.2300584    3.5727118   -0.6115873 
H     3.5602825    4.6558890   -1.9761339 
H    -2.5155843    3.1411712   -0.3881050 
C    -5.1894773    2.3829103   -0.8671771 
C    -3.8994472    1.5430896   -0.8316058 
C    -2.6539191    2.3796380   -1.1788284 
C    -2.8367719    3.1000464   -2.5329847 
C    -4.1243382    3.9477294   -2.5348646 
C    -5.3608298    3.0944478   -2.2171383 
H    -5.1540731    3.1417754   -0.0635863 
H    -6.0568075    1.7320484   -0.6536636 
H    -3.9869012    0.7223918   -1.5692734 
H    -3.7692283    1.0728107    0.1587683 
H    -1.9737191    3.7521726   -2.7510489 
H    -2.8969168    2.3498012   -3.3447523 
H    -4.0270780    4.7523172   -1.7796676 
H    -4.2330771    4.4429723   -3.5162864 
H    -5.5023711    2.3412665   -3.0174616 
H    -6.2699007    3.7216613   -2.2077678 
