90
Energy =
C     2.9302591    0.8955181   -0.4472766 
C     2.8332046    0.2413339    0.7991387 
C     2.5137045   -1.1394626    0.8854250 
H     2.9537917    0.8250049    1.7197652 
Pd    0.7802830    0.0346088   -0.0227735 
P    -0.7768887   -1.7150932    0.4928176 
P    -0.5911151    1.6235367   -1.1307712 
H     3.0462850    0.2537102   -1.3332588 
H     2.7185796   -1.7454349   -0.0101596 
C     4.4298686    4.8868610   -1.0147061 
C     3.8327956    4.5381147    0.2092268 
C     3.3330489    3.2477470    0.4085014 
C     3.4075697    2.2772489   -0.6183517 
C     4.0258712    2.6392869   -1.8384020 
C     4.5333751    3.9290899   -2.0342622 
H     4.8188541    5.8985815   -1.1673818 
H     3.7577351    5.2787720    1.0120562 
H     2.8658244    2.9972121    1.3656754 
H     4.1167895    1.8950113   -2.6371281 
H     5.0110678    4.1869029   -2.9848771 
C     2.3863900   -3.4258643    4.5351069 
C     2.2538433   -2.0276409    4.5839409 
C     2.3061363   -1.2709208    3.4094814 
C     2.4889048   -1.8942958    2.1526353 
C     2.6602632   -3.2991818    2.1257092 
C     2.6016638   -4.0579286    3.3011734 
H     2.3373305   -4.0159290    5.4557649 
H     2.1041754   -1.5254539    5.5452846 
H     2.1806439   -0.1854281    3.4704171 
H     2.8547181   -3.7996328    1.1700489 
H     2.7340243   -5.1437146    3.2547344 
Fe   -3.2954112   -0.5868282   -1.5546845 
C    -2.5131728   -1.7014290   -0.0701398 
C    -3.1553473   -2.5402361   -1.0646575 
H    -2.6778492   -3.3072428   -1.6734506 
C    -4.5360671   -2.1649730   -1.1496630 
H    -5.2690554   -2.5965473   -1.8335158 
C    -4.7697721   -1.1013008   -0.2208105 
H    -5.7161522   -0.5818827   -0.0616547 
C    -3.5359716   -0.8146668    0.4466043 
C    -2.0147785    0.8947643   -2.0093950 
C    -3.3764980    1.3705150   -2.1388305 
H    -3.8253250    2.2044775   -1.5976885 
C    -4.0530355    0.5443702   -3.0939984 
H    -5.1045171    0.6282620   -3.3747974 
C    -3.1255133   -0.4326237   -3.5825588 
H    -3.3455543   -1.2236617   -4.3017266 
C    -1.8707112   -0.2229368   -2.9222200 
C    -1.2691040    2.9051364    0.0707976 
C     0.0441254    2.6561850   -2.6041704 
H    -3.3959275   -0.0611678    1.2183816 
H    -0.9679775   -0.8205140   -3.0555233 
C    -0.0038560   -3.2732181   -0.2253194 
C    -0.9256123   -2.0141024    2.3513125 
H    -1.6825470    3.7088037   -0.5685818 
H    -0.9030855    2.8825292   -3.1302410 
H     0.9730333   -3.2546436    0.2857291 
H     0.0201986   -2.5369936    2.5830107 
C    -0.6627670   -4.6178998    0.1278583 
H    -0.1266489   -5.4282354   -0.3986585 
H    -0.5923010   -4.8265487    1.2072166 
H    -1.7231748   -4.6713958   -0.1666226 
C     0.2697465   -3.1069954   -1.7328227 
H     0.7871396   -2.1519644   -1.9409455 
H     0.9153839   -3.9305780   -2.0855383 
H    -0.6550154   -3.1283085   -2.3328284 
C    -2.1120305   -2.8987762    2.7750578 
H    -2.0272097   -3.1167915    3.8548280 
H    -3.0730073   -2.3841444    2.6091713 
H    -2.1482850   -3.8582276    2.2387751 
C    -0.9390893   -0.6787902    3.1174026 
H    -0.7617638   -0.8625884    4.1911306 
H    -0.1605377    0.0127226    2.7508679 
H    -1.9173209   -0.1759465    3.0235818 
C    -2.3764383    2.3720133    0.9892359 
H    -2.7249368    3.1869195    1.6482744 
H    -3.2421076    1.9814751    0.4357752 
H    -1.9822339    1.5679982    1.6329992 
C    -0.1174595    3.4632496    0.9283499 
H    -0.4953335    4.2769832    1.5722099 
H     0.2836087    2.6674337    1.5831460 
H     0.7146951    3.8610826    0.3309985 
C     0.7243894    3.9927790   -2.2712141 
H     0.9984864    4.4891329   -3.2192927 
H     0.0538474    4.6782607   -1.7279493 
H     1.6485203    3.8648071   -1.6893502 
C     0.9043866    1.7766779   -3.5255623 
H     0.3577499    0.8867324   -3.8766328 
H     1.2068774    2.3547824   -4.4166716 
H     1.8193170    1.4415066   -3.0125533 
