112
Energy =
C     1.8213957    0.8031415   -2.6710733 
C     0.7547019    1.7172317   -2.7457298 
C     0.5260848    2.6844416   -1.7123226 
H     0.0119564    1.6087010   -3.5461166 
Pd    0.3490213    0.6644189   -0.8173909 
P     0.2171588    1.4628314    1.3616902 
P     0.1355404   -1.5984289   -0.2828131 
H     2.6125931    1.0194892   -1.9367346 
H     1.4061257    3.0972157   -1.2009975 
C     2.8611988   -2.3340916   -5.4151141 
C     3.6193906   -2.1102337   -4.2550207 
C     3.2745995   -1.0689077   -3.3873136 
C     2.1575727   -0.2383020   -3.6466052 
C     1.4300058   -0.4515686   -4.8416667 
C     1.7753403   -1.4916568   -5.7098146 
H     3.1268723   -3.1468614   -6.0986566 
H     4.4833773   -2.7441922   -4.0298852 
H     3.8726135   -0.8876018   -2.4879306 
H     0.5963281    0.2064845   -5.1013754 
H     1.2006108   -1.6423423   -6.6294279 
C    -3.0309030    5.1072603   -1.5000657 
C    -3.0653330    3.8694604   -2.1644313 
C    -1.9132059    3.0818396   -2.2467317 
C    -0.6928039    3.5166454   -1.6737581 
C    -0.6713583    4.7704483   -1.0228927 
C    -1.8286328    5.5537603   -0.9320863 
H    -3.9348700    5.7209171   -1.4310842 
H    -3.9986607    3.5138572   -2.6140049 
H    -1.9677292    2.1036013   -2.7372528 
H     0.2691950    5.1325696   -0.5966146 
H    -1.7899405    6.5223163   -0.4225795 
Fe   -1.7808541   -1.7893118    2.8544565 
C    -0.2561678   -1.9496028    1.4631049 
C     0.1417449   -1.1512428    2.6197896 
C     0.0043676   -1.9957923    3.7844360 
C    -0.4963148   -3.2731826    3.3771672 
C    -0.6795414   -3.2442304    1.9594817 
C    -3.7572499   -2.1715959    2.4605829 
C    -3.4437047   -2.4493460    3.8318214 
C    -2.9545946   -1.2384606    4.4286243 
C    -2.9685232   -0.2116374    3.4284572 
C    -3.4596756   -0.7883680    2.2116263 
C     0.8047292    0.2098193    2.6539321 
H     0.2112617   -1.7052698    4.8145902 
H    -0.7366876   -4.1067824    4.0394972 
H    -1.0662431   -4.0648678    1.3530565 
H    -4.1521304   -2.8893658    1.7398203 
H    -3.5384610   -3.4166942    4.3284478 
H    -2.6131742   -1.1261931    5.4594142 
H    -2.6676686    0.8248230    3.5707436 
H    -3.5874045   -0.2617586    1.2667453 
H     1.9897523   -2.3022364   -1.6103397 
C     3.0740544   -4.6875194   -0.6416734 
C     1.6945312   -4.0542315   -0.3741309 
C     1.7497152   -2.5234503   -0.5518855 
C     2.8538511   -1.9012873    0.3317006 
C     4.2253444   -2.5607458    0.0965469 
C     4.1534983   -4.0856288    0.2707814 
H     3.3504977   -4.5194241   -1.7014654 
H     3.0110047   -5.7811659   -0.4996664 
H     1.3795006   -4.2931585    0.6590636 
H     0.9482993   -4.4988569   -1.0559310 
H     2.9105355   -0.8126273    0.1358050 
H     2.5725498   -2.0254851    1.3955951 
H     4.5724394   -2.3318701   -0.9294969 
H     4.9691884   -2.1231657    0.7867611 
H     3.9141854   -4.3233421    1.3260419 
H     5.1370136   -4.5413940    0.0586237 
H    -0.9306557   -3.6347460   -0.9226543 
C    -1.4513120   -1.2416303   -3.4176145 
C    -0.9093305   -2.5343087   -2.7868405 
C    -1.1278659   -2.6004471   -1.2572684 
C    -2.5794225   -2.2437275   -0.8808250 
C    -3.0488686   -0.9197706   -1.4978488 
C    -2.9063816   -0.9497107   -3.0252258 
H    -1.3437716   -1.2958857   -4.5141560 
H    -0.8226727   -0.3972174   -3.0729581 
H     0.1568307   -2.6642366   -3.0483231 
H    -1.4427830   -3.4001388   -3.2247264 
H    -3.2297200   -3.0629836   -1.2455046 
H    -2.6694281   -2.2222161    0.2144816 
H    -4.0925828   -0.7120047   -1.2008756 
H    -2.4285434   -0.0918012   -1.0916244 
H    -3.2357982    0.0077363   -3.4691865 
H    -3.5707286   -1.7328768   -3.4400694 
H     1.8446458    0.0620409    2.3002887 
C     0.8750889    0.8056515    4.0697464 
H     1.4933599    0.1628233    4.7185664 
H     1.3434475    1.8036606    4.0569299 
H    -0.1303233    0.8801376    4.5155438 
C     3.6928263    4.5794609    1.4647168 
C     3.9449921    3.2182400    1.2273869 
C     2.8907258    2.2977128    1.2326383 
C     1.5649075    2.7184709    1.4895084 
C     1.3209387    4.0874861    1.7160311 
C     2.3809285    5.0085819    1.7046920 
H     4.5162401    5.3007402    1.4578155 
H     4.9656632    2.8732468    1.0321866 
H     3.1017497    1.2433836    1.0189716 
H     0.3022868    4.4438133    1.8894936 
H     2.1740249    6.0687566    1.8847088 
C    -3.7163908    3.6110611    2.5782313 
C    -2.6121423    3.6855456    3.4432846 
C    -1.4096467    3.0476296    3.1116647 
C    -1.3063653    2.3144387    1.9063990 
C    -2.4162019    2.2563207    1.0417953 
C    -3.6147346    2.9005849    1.3744844 
H    -4.6523826    4.1137405    2.8424872 
H    -2.6861382    4.2463223    4.3807322 
H    -0.5565979    3.1308868    3.7894102 
H    -2.3312521    1.7067029    0.1001514 
H    -4.4645307    2.8507301    0.6870298 
