110
Energy =
C     0.4599575    0.6832301   -2.9411701 
C    -0.9109945    0.3241514   -2.9051278 
C    -1.8538002    1.1456816   -2.2472125 
H    -1.2303749   -0.6354681   -3.3279784 
Pd   -0.2215304    0.3095574   -0.7894699 
P    -1.5568849    0.3488951    1.1851537 
P     1.9015883   -0.3048313    0.0770010 
H     0.6823688    1.7452775   -2.7693805 
H    -1.5451195    2.1807627   -2.0454370 
C     3.5785630   -1.3832145   -5.0664376 
C     3.7509312   -0.0533943   -4.6529025 
C     2.7226054    0.6074792   -3.9706372 
C     1.5030668   -0.0481689   -3.6772122 
C     1.3396366   -1.3823963   -4.1150731 
C     2.3648716   -2.0400367   -4.8023325 
H     4.3806603   -1.9036691   -5.5993183 
H     4.6868792    0.4724677   -4.8674122 
H     2.8601217    1.6487226   -3.6606642 
H     0.4106307   -1.9191848   -3.8995639 
H     2.2212500   -3.0750899   -5.1289645 
C    -6.1284215    0.6218578   -2.2758275 
C    -5.5552655    1.8302622   -1.8526957 
C    -4.1633532    1.9832233   -1.8494880 
C    -3.3098998    0.9291970   -2.2555050 
C    -3.9075396   -0.2744602   -2.7003124 
C    -5.2976810   -0.4248423   -2.7102223 
H    -7.2162835    0.5000133   -2.2827836 
H    -6.1939609    2.6607303   -1.5348843 
H    -3.7264220    2.9401893   -1.5432840 
H    -3.2812143   -1.1059678   -3.0384924 
H    -5.7378093   -1.3650691   -3.0579009 
Fe    0.8591258   -0.7644039    3.2854726 
C     1.8608838   -1.2638405    1.6304662 
C     0.8634716   -2.2660772    1.9437938 
H     0.0272829   -2.5442909    1.3050427 
C     1.1421061   -2.7954005    3.2451067 
H     0.5471353   -3.5442243    3.7706964 
C     2.3115865   -2.1407764    3.7505980 
H     2.7673058   -2.3027213    4.7289917 
C     2.7655338   -1.2049967    2.7637091 
C    -0.7063960    0.3830773    2.8022869 
C     0.4537481    1.1964722    3.1040618 
H     0.9371305    1.8896900    2.4183847 
C     0.8663093    0.9228914    4.4483657 
H     1.7282855    1.3624172    4.9531007 
C    -0.0265280   -0.0533968    4.9970307 
H     0.0345496   -0.4919848    5.9945132 
C    -0.9995135   -0.3849050    3.9978781 
H     3.6326820   -0.5517867    2.8718578 
H    -1.8057781   -1.1088499    4.1227272 
C    -2.8014808   -1.0734445    1.4227657 
C    -4.0933526   -0.3895446    1.9790316 
C    -3.8127405    1.0505947    2.4282201 
C    -2.8777691    1.6780299    1.3790704 
H    -2.3363957   -1.7242050    2.1853658 
H    -4.8348073   -0.3551116    1.1601657 
H    -4.5354982   -0.9911423    2.7908349 
H    -4.7499925    1.6310080    2.5125192 
H    -3.3319722    1.0668211    3.4222899 
H    -3.3876836    1.6194529    0.3982962 
C     3.0829608    1.1299091    0.4637689 
C     4.3210777    0.8579265   -0.4191225 
C     4.5214748   -0.6590313   -0.5048780 
C     3.1762026   -1.2954667   -0.9239981 
H     3.3603098    0.9344576    1.5137316 
H     4.1512147    1.2484375   -1.4377161 
H     5.2106162    1.3735309   -0.0159824 
H     5.3117768   -0.9150259   -1.2312968 
H     4.8348017   -1.0654629    0.4764913 
H     2.9846235   -1.0486620   -1.9824507 
C     3.0955823   -2.8289419   -0.7402073 
H     3.1984240   -3.0380828    0.3421316 
C     2.4928480    2.5685780    0.4200878 
H     1.4264354    2.4860355    0.7034933 
C    -3.1278663   -1.9428503    0.1798737 
C    -2.4934781    3.1641705    1.6106884 
H    -3.4178114    3.7233710    1.3586233 
H    -3.5763935   -1.2662925   -0.5689503 
C     1.7498722   -3.3985746   -1.2182792 
H     1.6227285   -4.4422845   -0.8834730 
H     0.8973863   -2.8124222   -0.8364459 
H     1.6927051   -3.3839665   -2.3190031 
C     4.2558523   -3.5348856   -1.4696758 
H     4.2530502   -3.2784570   -2.5451527 
H     5.2390053   -3.2612086   -1.0519391 
H     4.1501508   -4.6302530   -1.3811434 
C     2.5197357    3.2276802   -0.9654843 
H     3.5481735    3.4691039   -1.2857978 
H     2.0703163    2.5719980   -1.7271108 
H     1.9444476    4.1693060   -0.9494968 
C     3.1910941    3.4630706    1.4612546 
H     2.7569441    4.4780164    1.4635841 
H     3.0936231    3.0479988    2.4808714 
H     4.2693084    3.5597698    1.2395586 
C    -1.4003929    3.6488122    0.6448642 
H    -1.2072348    4.7270163    0.7783745 
H    -0.4496750    3.1121325    0.8155652 
H    -1.6841988    3.4854141   -0.4080695 
C    -2.1481613    3.5275095    3.0667424 
H    -2.9789683    3.2984037    3.7544302 
H    -1.2532302    2.9952116    3.4270170 
H    -1.9496917    4.6109337    3.1405433 
C    -4.1808706   -3.0117799    0.5394529 
H    -4.4209225   -3.6231613   -0.3478614 
H    -3.7953678   -3.6917887    1.3219985 
H    -5.1236101   -2.5723220    0.9038260 
C    -1.9182772   -2.6252001   -0.4685877 
H    -2.2146723   -3.1320061   -1.4036274 
H    -1.1245418   -1.8915723   -0.7223813 
H    -1.4811821   -3.3943522    0.1940508 
