124
Energy =
C     1.2053176    1.2233614   -2.8472887 
C     2.0931754    0.1675415   -2.4945037 
C     1.6886701   -1.1894726   -2.5202881 
H     3.0555064    0.4219754   -2.0350162 
Pd    0.3676577    0.0579404   -1.1316631 
P    -0.0549934   -1.5334859    0.5062183 
P    -0.9551936    1.7305895   -0.2016187 
H     0.3851964    0.9836570   -3.5405451 
H     0.8564795   -1.4564175   -3.1895305 
C     2.2270451    5.4030127   -2.7838514 
C     3.0268078    4.4816985   -2.0868487 
C     2.6889073    3.1255344   -2.0646994 
C     1.5574871    2.6537318   -2.7734814 
C     0.7540285    3.5938565   -3.4588208 
C     1.0809181    4.9551709   -3.4578670 
H     2.4962415    6.4641626   -2.7978459 
H     3.9155379    4.8250250   -1.5481739 
H     3.3112361    2.4344809   -1.4869873 
H    -0.1336871    3.2492258   -3.9991624 
H     0.4456931    5.6647464   -3.9983038 
C     4.0689100   -4.5538545   -1.2752336 
C     2.8381939   -4.7446331   -1.9203648 
C     2.0791647   -3.6404978   -2.3258889 
C     2.5226840   -2.3205959   -2.0758986 
C     3.7639176   -2.1437423   -1.4194787 
C     4.5303990   -3.2486920   -1.0370595 
H     4.6654259   -5.4128015   -0.9538154 
H     2.4735903   -5.7572534   -2.1217118 
H     1.1363055   -3.7998289   -2.8577547 
H     4.1372832   -1.1393222   -1.1980151 
H     5.4897902   -3.0949377   -0.5341444 
Fe   -2.8785131   -1.5116231    2.6504560 
C    -1.0617977   -1.0054737    1.9200370 
C    -1.9631126    0.1444235    1.9538776 
C    -2.3529824    0.3246508    3.3319369 
C    -1.7335448   -0.6915374    4.1304853 
C    -0.9419162   -1.5161261    3.2710117 
C    -3.8418977   -2.7853833    1.3631934 
C    -3.5727170   -3.4387139    2.6138826 
C    -4.2134057   -2.6821798    3.6520861 
C    -4.8762291   -1.5628849    3.0435635 
C    -4.6446711   -1.6268813    1.6279845 
C     1.6112200   -1.8094274    1.2532095 
C     2.3661217   -0.6373658    1.4527556 
C     3.6926187   -0.7168589    1.8954887 
C     4.2690067   -1.9570736    2.1967343 
C     3.5084339   -3.1215457    2.0160822 
C     2.1968080   -3.0577834    1.5244761 
C    -0.6869622   -3.1732691   -0.0132939 
C    -0.7605078   -4.2754740    0.8577828 
C    -1.2216744   -5.5120117    0.3865005 
C    -1.6602160   -5.6553066   -0.9391466 
C    -1.6289116   -4.5443106   -1.7909850 
C    -1.1350260   -3.3129419   -1.3352214 
C    -2.4033929    1.0116944    0.7953224 
H    -3.0327939    1.0898542    3.7066520 
H    -1.8690375   -0.8311257    5.2042597 
H    -0.3251249   -2.3619693    3.5803185 
H    -3.4920052   -3.1092871    0.3816779 
H    -3.0010439   -4.3558687    2.7507476 
H    -4.1874843   -2.9082412    4.7195376 
H    -5.4376936   -0.7876090    3.5682919 
H    -5.0073840   -0.9133332    0.8851478 
H     1.9331798    0.3450333    1.2279503 
H     1.6703871   -3.9931854    1.3258123 
H    -0.4590285   -4.1835483    1.9045783 
H    -1.0979615   -2.4535481   -2.0127843 
H    -2.8589556    0.3622893    0.0239115 
C    -3.4173370    2.0872769    1.2125273 
H    -4.2748896    1.6104916    1.7183346 
H    -2.9627340    2.8142288    1.9071257 
H    -3.7979692    2.6336286    0.3357355 
C     4.5142953    0.5519781    1.9076405 
F     4.7501899    0.9660958    0.6239856 
F     3.8680326    1.5707794    2.5231669 
F     5.7089400    0.3921821    2.5043891 
C     4.1321369   -4.4634208    2.3418812 
F     3.4266347   -5.4894701    1.8121627 
F     5.3984844   -4.5446610    1.8623449 
F     4.1982858   -4.6590348    3.6779017 
C    -1.2350767   -6.6891405    1.3407690 
F    -2.2286462   -6.5650171    2.2617567 
F    -1.4171626   -7.8592811    0.7020927 
F    -0.0698234   -6.7570434    2.0285051 
C    -2.0764520   -4.6428691   -3.2328969 
F    -2.6296145   -5.8336271   -3.5215489 
F    -2.9779602   -3.6738941   -3.5258313 
F    -1.0211107   -4.4594771   -4.0750366 
H     5.3066510   -2.0172438    2.5349671 
H    -2.0202468   -6.6212662   -1.3010269 
C    -3.2118045    3.9838804   -3.5483365 
C    -2.9608141    2.6007329   -3.6627275 
C    -2.2562828    1.9698062   -2.6247372 
C    -1.8298034    2.6928165   -1.4907017 
C    -2.1325535    4.0608746   -1.3832407 
C    -2.8101315    4.7269676   -2.4242006 
H    -3.7433101    4.4951982   -4.3601745 
H    -2.0268313    0.8983996   -2.7003549 
H    -1.8403486    4.6225850   -0.4907379 
C    -3.4323706    1.8288002   -4.8748038 
H    -3.0810986    0.7840586   -4.8530625 
H    -4.5362034    1.8152541   -4.9265673 
H    -3.0704693    2.2949487   -5.8083902 
C    -3.0625304    6.2157601   -2.3408204 
H    -3.9325060    6.5152609   -2.9478520 
H    -3.2342955    6.5383706   -1.3001451 
H    -2.1848249    6.7747284   -2.7176641 
C     1.6112500    4.3937470    2.5750850 
C     1.0809172    3.1854648    3.0620679 
C     0.2715414    2.4207312    2.2060493 
C     0.0008575    2.8455620    0.8863886 
C     0.5809900    4.0403699    0.4100886 
C     1.3726321    4.8362171    1.2610898 
H     2.2287362    5.0106861    3.2393429 
H    -0.1495146    1.4866223    2.5837208 
H     0.4185440    4.3645735   -0.6221871 
C     1.3856298    2.7075945    4.4640170 
H     1.3079058    3.5305052    5.1951327 
H     0.6999370    1.9008710    4.7722734 
H     2.4167844    2.3139565    4.5176385 
C     1.9600629    6.1451923    0.7824695 
H     1.5304360    6.4526520   -0.1835677 
H     1.7806357    6.9486543    1.5180551 
H     3.0547258    6.0607101    0.6532298 
