124
Energy =
C     2.8802201   -0.6866258   -1.6144968 
C     2.9557993    0.7381736   -1.7138879 
C     3.1069805    1.5439628   -0.5703872 
H     2.8133056    1.2042101   -2.6975430 
Pd    1.1334690    0.1984629   -0.5744037 
P    -0.4364858    1.6596283    0.4516794 
P    -0.0183314   -1.8187253   -0.0824696 
H     3.4193615   -1.1518756   -0.7757168 
H     3.4104541    1.0339374    0.3559986 
C     2.5603674   -3.1445009   -5.1376332 
C     1.7334535   -2.0172266   -4.9935650 
C     1.8354230   -1.2115975   -3.8547193 
C     2.7583326   -1.5224645   -2.8309468 
C     3.5946633   -2.6470259   -2.9957415 
C     3.4970280   -3.4506299   -4.1394860 
H     2.4762995   -3.7779570   -6.0265618 
H     1.0005688   -1.7719540   -5.7694763 
H     1.1720310   -0.3475248   -3.7349220 
H     4.3263786   -2.8915844   -2.2177263 
H     4.1514161   -4.3216187   -4.2484357 
C     3.6793471    5.8035458   -0.3937698 
C     3.8498950    5.0039340    0.7466036 
C     3.6613356    3.6202029    0.6651951 
C     3.2903659    3.0007429   -0.5519994 
C     3.1705147    3.8171375   -1.7025152 
C     3.3518150    5.2007273   -1.6201718 
H     3.8227570    6.8872203   -0.3343708 
H     4.1374911    5.4593905    1.6998325 
H     3.8094788    2.9989463    1.5543220 
H     2.9467941    3.3692761   -2.6736520 
H     3.2498273    5.8138618   -2.5215466 
Fe   -2.5376375    0.4490841    3.2972748 
C    -1.7468784    0.7903730    1.4015580 
C    -1.7388512   -0.6259500    1.7488675 
C    -3.0994061   -1.0167188    2.0175329 
C    -3.9472519    0.1273855    1.8709717 
C    -3.1216353    1.2421128    1.5222486 
C    -2.4274710    1.8881556    4.7624978 
C    -3.6790999    1.1938728    4.8176003 
C    -3.4047418   -0.1998377    5.0240252 
C    -1.9824747   -0.3669115    5.1005491 
C    -1.3790439    0.9224052    4.9409895 
C    -0.5766602   -1.5847046    1.7107872 
H    -3.4205096   -2.0131684    2.3273871 
H    -5.0238160    0.1572989    2.0490936 
H    -3.4778199    2.2592393    1.3523307 
H    -2.3020774    2.9626463    4.6268406 
H    -4.6674143    1.6413807    4.6969531 
H    -4.1483774   -0.9968631    5.0836302 
H    -1.4583856   -1.3123585    5.2513778 
H    -0.3102660    1.1338751    4.9770776 
H    -2.2114494    3.1544528   -0.1032150 
C    -1.4754080    1.2061199   -2.9015587 
C    -2.3113562    1.7391071   -1.7306819 
C    -1.5002155    2.6400661   -0.7718985 
C    -0.7232258    3.7249320   -1.5539636 
C     0.0792629    3.1643509   -2.7352804 
C    -0.7984541    2.3381586   -3.6818933 
H    -2.1059563    0.5902211   -3.5648718 
H    -0.6855303    0.5391677   -2.4932486 
H    -2.7824426    0.9094102   -1.1738673 
H    -3.1427918    2.3516212   -2.1311613 
H    -1.4758633    4.4400378   -1.9398809 
H    -0.0635001    4.3062998   -0.8859510 
H     0.5775649    3.9908517   -3.2707236 
H     0.8760133    2.5066681   -2.3376597 
H    -0.1910916    1.9267564   -4.5089441 
H    -1.5672030    2.9869559   -4.1458093 
H     0.9701231    3.5591341    0.8790106 
C     1.6627727    3.4364394    3.6564168 
C     1.0890148    2.3832904    2.6912849 
C     0.2754064    3.0091813    1.5429181 
C    -0.7981159    3.9785420    2.0812370 
C    -0.1895738    5.0314977    3.0269713 
C     0.5743791    4.3796952    4.1891317 
H     2.4238445    4.0399797    3.1286481 
H     2.1818216    2.9274147    4.4890275 
H     0.4205551    1.7001426    3.2428504 
H     1.9031719    1.7633287    2.2730996 
H    -1.3113294    4.4920512    1.2499521 
H    -1.5596752    3.3858335    2.6217763 
H     0.5027861    5.6763979    2.4509929 
H    -0.9917418    5.6892911    3.4076883 
H    -0.1306139    3.8113786    4.8256293 
H     1.0241686    5.1539065    4.8357933 
H    -2.1914689   -1.2446401   -0.7355512 
C    -3.8588065   -3.3573191   -1.0410719 
C    -2.4438122   -3.3671930   -0.4310271 
C    -1.6281331   -2.1705414   -0.9727213 
C    -1.5288401   -2.2611500   -2.5121753 
C    -2.9405982   -2.2323907   -3.1263752 
C    -3.8104616   -3.3765607   -2.5782492 
H    -4.3872893   -2.4464160   -0.6961723 
H    -4.4336470   -4.2216720   -0.6622332 
H    -1.9345819   -4.3099417   -0.7046556 
H    -2.5080650   -3.3486318    0.6691075 
H    -0.9066032   -1.4463418   -2.9112116 
H    -1.0334648   -3.2021067   -2.8032896 
H    -3.4218402   -1.2625213   -2.8914816 
H    -2.8699907   -2.2937125   -4.2273819 
H    -3.3892737   -4.3442489   -2.9148803 
H    -4.8322635   -3.3160143   -2.9934450 
H     2.0503143   -3.0175514    0.1262194 
C     2.0171153   -5.3149180   -1.3849524 
C     1.0085978   -4.1533740   -1.3892410 
C     1.0236398   -3.4005741   -0.0377227 
C     0.6971263   -4.3923482    1.1061923 
C     1.6916258   -5.5710910    1.1073477 
C     1.7250314   -6.3000792   -0.2440393 
H     3.0402796   -4.9082355   -1.2708633 
H     1.9906697   -5.8247491   -2.3645447 
H    -0.0020317   -4.5710018   -1.5507492 
H     1.2137212   -3.4692703   -2.2264621 
H     0.7330576   -3.8985170    2.0912160 
H    -0.3308797   -4.7789632    0.9761102 
H     2.7032759   -5.1833781    1.3402630 
H     1.4270818   -6.2697920    1.9213672 
H     0.7453846   -6.7859616   -0.4220483 
H     2.4791879   -7.1068926   -0.2249988 
H    -0.9572961   -2.5630293    2.0493704 
C     0.6292456   -1.1932695    2.5808735 
H     0.3074831   -1.0591180    3.6255066 
H     1.4170162   -1.9650713    2.5506897 
H     1.0736079   -0.2474610    2.2343811 
