124
Energy =
C     2.5059349   -0.9224869   -2.1486243 
C     2.6283430    0.5055830   -2.2048840 
C     3.0707618    1.2356966   -1.0843870 
H     2.2551111    1.0458718   -3.0845676 
Pd    1.1360327   -0.0148221   -0.6551426 
P    -0.2973696    1.4425590    0.5027125 
P     0.0973648   -2.0225475   -0.0492286 
H     3.2383698   -1.4536362   -1.5267152 
H     3.5359739    0.6610670   -0.2678381 
C     0.7673551   -3.3419900   -5.2663865 
C     0.3963058   -1.9927966   -5.1388977 
C     0.9580431   -1.1964413   -4.1354988 
C     1.9162832   -1.7263159   -3.2396692 
C     2.2959385   -3.0798278   -3.3958050 
C     1.7230700   -3.8809219   -4.3920460 
H     0.3206060   -3.9647497   -6.0479682 
H    -0.3421538   -1.5612294   -5.8224720 
H     0.6353669   -0.1541971   -4.0348003 
H     3.0625237   -3.5010648   -2.7353645 
H     2.0331676   -4.9261912   -4.4935547 
C     3.6746902    5.4771348   -0.7416101 
C     3.8020037    4.6392901    0.3775024 
C     3.6253541    3.2580117    0.2404981 
C     3.2971281    2.6854364   -1.0107214 
C     3.2086078    3.5391280   -2.1355432 
C     3.3923025    4.9186670   -1.9998218 
H     3.8153821    6.5579743   -0.6394909 
H     4.0454808    5.0628001    1.3575168 
H     3.7320196    2.6051513    1.1139369 
H     3.0003896    3.1226429   -3.1262165 
H     3.3214212    5.5640382   -2.8814130 
Fe   -2.8908682    0.2654020    2.9056757 
C    -1.7784966    0.6081672    1.1908281 
C    -1.9223141   -0.8217597    1.4511003 
C    -3.3313653   -1.1173220    1.4850929 
C    -4.0660533    0.0912114    1.2594684 
C    -3.1215771    1.1544477    1.1041352 
C    -2.9754379    1.6842438    4.3909874 
C    -4.2311855    1.0081508    4.2545970 
C    -4.0086827   -0.3917734    4.4809298 
C    -2.6154952   -0.5804580    4.7617490 
C    -1.9758209    0.7013502    4.7029574 
C    -0.8344739   -1.8658310    1.5790448 
H    -3.7638132   -2.0991489    1.6886900 
H    -5.1528743    0.1928083    1.2601289 
H    -3.3720352    2.2021164    0.9309935 
H    -2.8164811    2.7585484    4.2890062 
H    -5.1854689    1.4724253    3.9989080 
H    -4.7642258   -1.1778614    4.4267564 
H    -2.1350664   -1.5353111    4.9821445 
H    -0.9187164    0.8997540    4.8834245 
H    -1.7975950    3.2393601   -0.1627763 
C    -2.4413634    2.9117847   -2.8548650 
C    -1.8023199    1.9123055   -1.8751004 
C    -1.0633690    2.6403917   -0.7352763 
C    -0.0027990    3.5871378   -1.3275432 
C    -0.6297572    4.5930297   -2.3081985 
C    -1.3962977    3.8792578   -3.4323130 
H    -3.2250485    3.4885782   -2.3249240 
H    -2.9510883    2.3595231   -3.6650996 
H    -1.0681190    1.2846528   -2.4173347 
H    -2.5689156    1.2306801   -1.4716893 
H     0.5510827    4.1283173   -0.5414618 
H     0.7392546    2.9707573   -1.8658061 
H    -1.3198511    5.2596626   -1.7545382 
H     0.1652279    5.2377934   -2.7245587 
H    -0.6782349    3.3079468   -4.0548120 
H    -1.8774354    4.6152805   -4.1008033 
H     1.2193099    3.1374996    1.1591031 
C     1.9068218    2.7627512    3.8562599 
C     1.2335475    1.8100772    2.8527535 
C     0.4722933    2.5849138    1.7616364 
C    -0.5303519    3.5874949    2.3642421 
C     0.1505383    4.5218626    3.3816845 
C     0.8892451    3.7346161    4.4747294 
H     2.6933221    3.3444133    3.3361232 
H     2.4148429    2.1764369    4.6430207 
H     0.5206259    1.1576942    3.3870605 
H     1.9845036    1.1471314    2.3820083 
H    -0.9990275    4.1918885    1.5678765 
H    -1.3386727    3.0126117    2.8503947 
H     0.8734234    5.1691035    2.8469852 
H    -0.6039457    5.1941376    3.8288637 
H     0.1543210    3.1641130    5.0766030 
H     1.3944644    4.4267844    5.1715096 
H    -0.4193312   -3.1674490   -2.0717052 
C    -2.7475454   -2.0518228   -3.1531294 
C    -1.8522384   -1.5497381   -2.0095129 
C    -1.0967448   -2.7077016   -1.3226771 
C    -2.1013457   -3.7731791   -0.8261932 
C    -2.9783317   -4.2817377   -1.9868944 
C    -3.7306257   -3.1288986   -2.6694460 
H    -2.1049560   -2.4727943   -3.9498602 
H    -3.2903961   -1.1974625   -3.5975745 
H    -2.4706963   -1.0277172   -1.2556454 
H    -1.1217757   -0.8172807   -2.3889759 
H    -1.5877798   -4.6224018   -0.3477181 
H    -2.7555209   -3.3191406   -0.0598529 
H    -2.3348037   -4.7940867   -2.7288576 
H    -3.6877730   -5.0380374   -1.6056081 
H    -4.4416515   -2.6799671   -1.9476461 
H    -4.3329506   -3.5093394   -3.5136105 
H     1.6855510   -3.5154658   -0.8921791 
C     2.1247033   -5.7289701    0.6478134 
C     0.9821625   -4.6988752    0.7661742 
C     1.4187031   -3.3420014    0.1696400 
C     2.6952265   -2.8408270    0.8884954 
C     3.8379992   -3.8585264    0.7272027 
C     3.4288673   -5.2301170    1.2896711 
H     2.3009113   -5.9371454   -0.4261421 
H     1.8086286   -6.6833608    1.1056230 
H     0.7085251   -4.5657503    1.8308733 
H     0.0898288   -5.0891319    0.2522128 
H     2.9898882   -1.8466816    0.5069815 
H     2.4917484   -2.7091778    1.9648664 
H     4.0942838   -3.9576667   -0.3468141 
H     4.7453137   -3.4862089    1.2358315 
H     3.2867923   -5.1416713    2.3849102 
H     4.2365594   -5.9674677    1.1353491 
H    -1.3308863   -2.8365771    1.7523202 
C     0.1665260   -1.6083218    2.7203937 
H    -0.3786468   -1.2366015    3.5993476 
H     0.6975696   -2.5314776    3.0002558 
H     0.9142227   -0.8502053    2.4382095 
