112
Energy =
C     1.8850057    1.8300891    1.4161484 
C     1.3505640    2.8394603    0.5716573 
C     0.0127162    3.2916149    0.7157023 
H     1.9338662    3.1703037   -0.2962736 
Pd    0.0736172    1.0708035    0.2738135 
P    -1.9463587    0.7947894   -0.8300906 
P     0.6753627   -1.1841320    0.1041292 
H     1.4320057    1.7363036    2.4144115 
H    -0.4564350    3.1583515    1.7026986 
C     5.8553480    0.1880812    1.1577849 
C     5.0728403   -0.0066297    2.3051029 
C     3.7799402    0.5258381    2.3708504 
C     3.2374691    1.2587945    1.2906991 
C     4.0320347    1.4272343    0.1326047 
C     5.3268525    0.9050629    0.0718243 
H     6.8707700   -0.2178504    1.1065622 
H     5.4738879   -0.5646683    3.1575724 
H     3.1836863    0.3848741    3.2778248 
H     3.6355672    1.9660030   -0.7332564 
H     5.9265701    1.0517688   -0.8317500 
C    -1.9761247    6.2223295   -1.7347485 
C    -2.4893435    5.8647421   -0.4800657 
C    -1.8242137    4.9177241    0.3068924 
C    -0.6356041    4.3005592   -0.1428210 
C    -0.1195910    4.6881901   -1.4017674 
C    -0.7830774    5.6345970   -2.1880589 
H    -2.4950831    6.9608708   -2.3542840 
H    -3.4122093    6.3224626   -0.1102830 
H    -2.2304953    4.6469946    1.2859825 
H     0.8128585    4.2499899   -1.7734602 
H    -0.3675837    5.9184914   -3.1605871 
Fe   -3.1769782   -1.9025487    1.0606235 
C    -2.6889284   -0.8407842   -0.6040620 
C    -1.9611014   -2.1004701   -0.5601477 
C    -2.9486468   -3.1508198   -0.5253511 
C    -4.2557749   -2.5633453   -0.5336959 
C    -4.1044699   -1.1398088   -0.5730867 
C    -4.4892521   -2.1790904    2.5987004 
C    -3.4411420   -3.1576486    2.6505794 
C    -2.1908062   -2.4669866    2.7657296 
C    -2.4647528   -1.0566219    2.7789882 
C    -3.8884337   -0.8796491    2.6791733 
C    -1.7532161    0.9345409   -2.6536090 
C    -0.6964591    1.7093717   -3.1698633 
C    -0.5067194    1.8157989   -4.5542281 
C    -1.3686992    1.1421207   -5.4330231 
C    -2.4218728    0.3650261   -4.9246750 
C    -2.6166247    0.2581321   -3.5406380 
C    -3.2961108    1.9468463   -0.3723959 
C    -4.0812447    2.6205121   -1.3255916 
C    -5.1217236    3.4618757   -0.9031003 
C    -5.3875998    3.6285799    0.4637673 
C    -4.5956426    2.9684026    1.4177012 
C    -3.5453438    2.1416771    1.0009168 
C    -0.4940622   -2.3589471   -0.8226223 
H    -2.7252842   -4.2189679   -0.4787303 
H    -5.2019182   -3.1044747   -0.4740998 
H    -4.9049651   -0.3976870   -0.5625260 
H    -5.5553749   -2.3850331    2.4869916 
H    -3.5704940   -4.2396321    2.5861652 
H    -1.2094745   -2.9358588    2.8204275 
H    -1.7183506   -0.2628723    2.8435211 
H    -4.4282600    0.0672229    2.6515044 
H    -0.0227624    2.2245808   -2.4786068 
H    -3.4292374   -0.3622149   -3.1486865 
H    -3.8788730    2.4957270   -2.3938910 
H    -2.9023075    1.6503764    1.7385243 
H    -0.2591820   -3.3520991   -0.4024884 
C    -0.2352923   -2.4092893   -2.3454190 
H    -0.9551007   -3.1117327   -2.7995176 
H    -0.3873869   -1.4254973   -2.8181168 
H     0.7859451   -2.7543246   -2.5711086 
H     0.3158688    2.4231234   -4.9464303 
H    -3.0923445   -0.1648455   -5.6092168 
H    -5.7260511    3.9893446   -1.6482524 
H    -4.7887013    3.1095356    2.4865584 
H    -1.2185885    1.2191002   -6.5148797 
H    -6.2046140    4.2816085    0.7876579 
C     4.5498808   -1.2905603   -2.4300213 
C     3.4599977   -0.4913843   -2.8315884 
C     2.3135927   -0.4787359   -2.0241346 
C     2.2447534   -1.2603710   -0.8493974 
C     3.3541428   -2.0239515   -0.4570878 
C     4.5214126   -2.0483826   -1.2477187 
H     5.4552407   -1.3056222   -3.0491325 
H     1.4593150    0.1448245   -2.3131139 
H     3.3313062   -2.5925730    0.4773481 
C     3.5412639    0.3613455   -4.0785283 
H     4.1819064    1.2470703   -3.9061814 
H     3.9835906   -0.1990478   -4.9201402 
H     2.5447672    0.7189593   -4.3871118 
C     5.7071277   -2.8820383   -0.8174371 
H     5.5097363   -3.9586884   -0.9753478 
H     6.6148056   -2.6204350   -1.3853300 
H     5.9167559   -2.7403684    0.2571072 
C     1.4187612   -3.3106951    4.1520246 
C     1.4824181   -4.0784085    2.9693815 
C     1.2612588   -3.4329282    1.7410228 
C     0.9908900   -2.0478271    1.6903553 
C     0.9428514   -1.3135135    2.8846678 
C     1.1490231   -1.9324642    4.1327813 
H     1.5784208   -3.8082401    5.1162081 
H     1.3069813   -4.0242522    0.8193604 
H     0.7139220   -0.2444676    2.8426094 
C     1.7931819   -5.5573002    3.0315045 
H     1.6657838   -6.0410471    2.0494036 
H     2.8357361   -5.7239552    3.3594246 
H     1.1389305   -6.0707764    3.7577016 
C     1.0317576   -1.1306675    5.4092499 
H    -0.0309135   -0.9284046    5.6404892 
H     1.4661221   -1.6667624    6.2683036 
H     1.5387915   -0.1536288    5.3190425 
