122
Energy =
C     1.1934050    2.6604119   -1.7721449 
C     1.0426837    1.7440302   -2.8480616 
C    -0.2311988    1.3249478   -3.2891647 
H     1.9402496    1.3001505   -3.2952034 
Pd    0.2294154    0.7294328   -1.0609255 
P    -1.0277028   -1.2727693   -1.2567682 
P     0.9429522    0.6750237    1.1957742 
H     0.3314964    3.3089068   -1.5543354 
H    -1.0843429    1.9546278   -3.0012481 
C     4.9798510    4.3830641   -0.6519873 
C     4.9336378    3.0716667   -1.1552224 
C     3.7114705    2.4994490   -1.5206891 
C     2.5022233    3.2190223   -1.3802956 
C     2.5672185    4.5421570   -0.8900852 
C     3.7924304    5.1194743   -0.5321262 
H     5.9374109    4.8298363   -0.3660410 
H     5.8569403    2.4925118   -1.2616496 
H     3.6922134    1.4746529   -1.9035947 
H     1.6442358    5.1251664   -0.7992044 
H     3.8194628    6.1486969   -0.1594619 
C    -1.0052413   -1.1538633   -6.7184641 
C    -2.0531600   -0.4940347   -6.0608323 
C    -1.7878050    0.2979510   -4.9381065 
C    -0.4718761    0.4407678   -4.4398284 
C     0.5730558   -0.2358284   -5.1135059 
C     0.3088978   -1.0175225   -6.2403835 
H    -1.2078363   -1.7689264   -7.6013131 
H    -3.0803729   -0.5866708   -6.4281532 
H    -2.6102738    0.8214676   -4.4426636 
H     1.6035594   -0.1529272   -4.7571718 
H     1.1326280   -1.5295698   -6.7473777 
Fe   -3.5139114    0.0713192    2.9871561 
C    -1.7699873    0.3048830    1.9569312 
C    -2.4960515   -0.8523591    1.4631031 
C    -3.8042377   -0.4032026    1.0479422 
H    -4.5837138   -1.0447910    0.6347114 
C    -3.8770615    1.0151962    1.2314173 
H    -4.7436272    1.6441892    1.0203120 
C    -2.6311464    1.4518303    1.7890499 
H    -2.3864601    2.4741821    2.0843311 
C    -3.2323757    0.4573281    4.9798014 
H    -2.3621302    0.9340802    5.4354521 
C    -3.4162933   -0.9503411    4.7690269 
H    -2.7133998   -1.7365487    5.0501471 
C    -4.6926670   -1.1440391    4.1392141 
H    -5.1249182   -2.0996236    3.8364973 
C    -5.3007528    0.1438493    3.9692030 
H    -6.2674447    0.3400322    3.5016735 
C    -4.3981045    1.1334544    4.4861634 
H    -4.5604709    2.2129873    4.4827918 
C    -1.9660602   -2.2269412    1.2553343 
C    -1.2420620   -2.5495873    0.0738313 
C    -0.7387571   -3.8550442   -0.1005180 
H    -0.1763624   -4.1066374   -1.0039610 
C    -0.9464822   -4.8403130    0.8737792 
H    -0.5423185   -5.8464169    0.7222158 
C    -1.6823671   -4.5356705    2.0264419 
H    -1.8634917   -5.3027112    2.7864457 
C    -2.1889444   -3.2418477    2.2045613 
H    -2.7630839   -2.9855662    3.0977644 
C    -0.3810617    0.3716286    2.5410817 
H    -0.3450187    1.3281558    3.0898522 
C    -0.0421415   -0.7235546    3.5681251 
H    -0.7351173   -0.6252161    4.4171239 
H    -0.1574605   -1.7378028    3.1618492 
H     0.9845864   -0.6135991    3.9529515 
C     1.2215240   -3.8401531   -4.4399005 
C     1.9204335   -3.0628485   -3.5047324 
C     1.2162286   -2.2590092   -2.5992044 
C    -0.1958347   -2.2426950   -2.5937472 
C    -0.8874534   -2.9996337   -3.5581355 
C    -0.1794694   -3.7896242   -4.4752605 
H     1.7671741   -4.4678854   -5.1519242 
H     3.0154294   -3.0734390   -3.4836825 
H     1.7667989   -1.6315682   -1.8898611 
H    -1.9780912   -2.9648771   -3.6126014 
H    -0.7310167   -4.3655520   -5.2253053 
C    -5.4702277   -0.6181402   -2.4944149 
C    -4.9820223   -1.9209778   -2.3028510 
C    -3.6450186   -2.1253553   -1.9363385 
C    -2.7751132   -1.0243798   -1.7827380 
C    -3.2815550    0.2776234   -1.9444332 
C    -4.6209741    0.4812205   -2.3026643 
H    -6.5171784   -0.4613597   -2.7741482 
H    -5.6480861   -2.7811719   -2.4267190 
H    -3.2859187   -3.1415881   -1.7417172 
H    -2.6308885    1.1348859   -1.7473105 
H    -5.0047351    1.5003771   -2.4169397 
H     2.5960250   -0.5482781    2.4959070 
C     4.6843221   -1.2191470    0.7398501 
C     3.5326980   -0.2128018    0.5686982 
C     2.3090147   -0.5954481    1.4288854 
C     1.8634027   -2.0337313    1.1046259 
C     3.0133131   -3.0395048    1.2803248 
C     4.2324347   -2.6543174    0.4283323 
H     5.0552140   -1.1683723    1.7823633 
H     5.5295395   -0.9253913    0.0909999 
H     3.2132280   -0.1944021   -0.4923332 
H     3.8847109    0.8055699    0.8061459 
H     1.0037308   -2.3350318    1.7205100 
H     1.5154749   -2.0670256    0.0582718 
H     3.3058816   -3.0772192    2.3480717 
H     2.6542319   -4.0502542    1.0150035 
H     3.9635299   -2.7281076   -0.6448140 
H     5.0619986   -3.3643141    0.5948746 
H     2.4838503    2.5284859    1.0750963 
C     3.0185536    3.4518962    3.6793033 
C     2.4148804    2.1173332    3.2020524 
C     1.7178955    2.2727506    1.8305876 
C     0.6823241    3.4208860    1.8557784 
C     1.2884138    4.7390603    2.3729960 
C     1.9526441    4.5551243    3.7452773 
H     3.8200313    3.7562627    2.9778764 
H     3.4945642    3.3069261    4.6656717 
H     1.6840301    1.7672475    3.9576127 
H     3.2098414    1.3535807    3.1477350 
H     0.2480239    3.5563534    0.8486954 
H    -0.1581154    3.1494365    2.5230629 
H     2.0482611    5.0971327    1.6563025 
H     0.4992968    5.5113456    2.4182692 
H     1.1862254    4.2815109    4.4979777 
H     2.4017920    5.5059899    4.0830490 
