124
Energy =
C     1.3267923    1.0394313   -2.9735369 
C     2.4137994    0.2974244   -2.4388593 
C     2.3146690   -1.1045608   -2.2169298 
H     3.2872562    0.8406144   -2.0549421 
Pd    0.7229845    0.0256479   -1.0714272 
P     0.2522765   -1.4971805    0.6239316 
P    -0.8913711    1.5816470   -0.4324251 
H     0.6089862    0.4976244   -3.6094419 
H     1.6157755   -1.6660925   -2.8556616 
C     1.3821861    5.2940558   -3.5887227 
C     1.9980791    4.7490174   -2.4490202 
C     1.9837316    3.3672794   -2.2359645 
C     1.3422445    2.5040463   -3.1535513 
C     0.7022550    3.0663522   -4.2785483 
C     0.7359986    4.4482331   -4.5018097 
H     1.4005486    6.3755783   -3.7589090 
H     2.4885641    5.4045753   -1.7220473 
H     2.4485820    2.9551022   -1.3342447 
H     0.1772232    2.4122581   -4.9830434 
H     0.2438415    4.8670643   -5.3853518 
C     5.5752965   -3.4294978   -0.6549275 
C     4.6302128   -4.0119067   -1.5117424 
C     3.5464030   -3.2578561   -1.9787674 
C     3.3957382   -1.9012625   -1.6111892 
C     4.3325336   -1.3408222   -0.7101820 
C     5.4132080   -2.0949487   -0.2451038 
H     6.4209486   -4.0188538   -0.2887110 
H     4.7360568   -5.0578607   -1.8146679 
H     2.8202249   -3.7128621   -2.6621239 
H     4.2102947   -0.3095946   -0.3608900 
H     6.1257174   -1.6407822    0.4508956 
Fe   -2.3970384   -1.2334577    3.0241222 
C    -0.6919985   -0.7902235    2.0089806 
C    -1.6845980    0.2713975    1.8759884 
C    -1.9686408    0.7518447    3.2027059 
C    -1.2051800   -0.0103235    4.1444625 
C    -0.4282844   -0.9713059    3.4234846 
C    -4.3693840   -1.5272646    2.5398720 
C    -3.5668126   -2.6105533    2.0564554 
C    -2.9036777   -3.2104382    3.1832664 
C    -3.2976371   -2.4911108    4.3596034 
C    -4.1998731   -1.4484739    3.9624398 
C     1.7382372   -2.1997163    1.4299611 
C     2.5035654   -1.3137527    2.2125359 
C     3.6995313   -1.7441144    2.7988149 
C     4.1371026   -3.0652895    2.6396879 
C     3.3815598   -3.9416467    1.8490726 
C     2.2073378   -3.5090265    1.2171233 
C    -0.7406188   -2.8842484   -0.0549697 
C    -1.4192858   -2.6291126   -1.2563985 
C    -2.3120033   -3.5723451   -1.7846673 
C    -2.4982130   -4.8037501   -1.1449246 
C    -1.7940181   -5.0717299    0.0418260 
C    -0.9377071   -4.1133062    0.6004894 
C    -2.2798991    0.7858889    0.5903493 
H    -2.6853546    1.5332540    3.4570495 
H    -1.2425643    0.0933210    5.2302703 
H     0.2565814   -1.7020831    3.8556585 
H    -4.9940202   -0.8726186    1.9301224 
H    -3.4800693   -2.9207564    1.0139902 
H    -2.2401258   -4.0740871    3.1579944 
H    -2.9527724   -2.6872660    5.3764486 
H    -4.6573285   -0.7097144    4.6231253 
H     2.1713592   -0.2819645    2.3664314 
H     1.6742838   -4.2048809    0.5657714 
H    -1.2551967   -1.6759962   -1.7749092 
H    -0.4437088   -4.3255715    1.5522408 
H    -2.5865863   -0.0769157   -0.0307327 
C    -3.4851064    1.7126228    0.7969810 
H    -4.2640640    1.1810674    1.3688234 
H    -3.2068631    2.6136551    1.3668242 
H    -3.9111786    2.0273252   -0.1686774 
C     4.5585091   -0.7251978    3.5107347 
F     5.1899473    0.0748794    2.6007793 
F     3.8162421    0.0934863    4.2963865 
F     5.5087244   -1.2921950    4.2757754 
C     3.8089511   -5.3899542    1.7248132 
F     3.3278449   -5.9613384    0.5948526 
F     5.1557094   -5.5162987    1.7143642 
F     3.3454908   -6.1155090    2.7695262 
C    -3.0923280   -3.1889646   -3.0225462 
F    -3.7912517   -4.2142328   -3.5360845 
F    -3.9724973   -2.1873580   -2.7314513 
F    -2.2726639   -2.7046285   -3.9900909 
C    -1.9302700   -6.4222255    0.7175411 
F    -0.9386242   -7.2556989    0.3305553 
F    -1.8464421   -6.3030655    2.0683575 
F    -3.1054049   -7.0128459    0.4243251 
H     5.0659148   -3.4011229    3.1070403 
H    -3.1875409   -5.5446949   -1.5574943 
C    -3.1436112    3.3260152   -4.0635317 
C    -3.1855482    1.9414517   -3.7949093 
C    -2.4940172    1.4652194   -2.6699382 
C    -1.7733765    2.3482856   -1.8350525 
C    -1.7251964    3.7172159   -2.1408828 
C    -2.4258003    4.2232293   -3.2551441 
H    -3.6804495    3.7117168   -4.9389057 
H    -2.5230202    0.3911814   -2.4472835 
H    -1.1170459    4.3975951   -1.5377445 
C    -3.9592260    1.0020722   -4.6937200 
H    -3.6443916    1.1142491   -5.7464813 
H    -3.8187280   -0.0501759   -4.4001755 
H    -5.0409782    1.2255461   -4.6547631 
C    -2.4102269    5.7038918   -3.5616366 
H    -2.4139526    5.8901335   -4.6488596 
H    -3.3071908    6.1964756   -3.1411841 
H    -1.5229887    6.1936057   -3.1279985 
C     1.0451698    4.5902447    2.4881586 
C    -0.2293115    4.9086674    1.9775280 
C    -0.8309742    4.0211253    1.0667996 
C    -0.1631087    2.8452114    0.6678908 
C     1.1102251    2.5568938    1.1971700 
C     1.7311651    3.4190589    2.1179796 
H     1.5191236    5.2812703    3.1961542 
H    -1.8191378    4.2627559    0.6631665 
H     1.6250327    1.6422283    0.8717556 
C    -0.9319757    6.1773293    2.4081186 
H    -1.1675863    6.1490237    3.4876368 
H    -0.2916195    7.0612639    2.2396197 
H    -1.8751268    6.3263085    1.8576300 
C     3.0828050    3.0816338    2.7069289 
H     3.6380184    2.3689183    2.0749923 
H     3.7019472    3.9850345    2.8377744 
H     2.9699833    2.6130854    3.7017445 
