124
Energy =
C    -0.5746201    2.2920238   -2.2463113 
C    -1.2125451    1.1402119   -2.7745547 
C    -2.3735027    0.5888889   -2.1862017 
H    -0.7353465    0.6072862   -3.6058356 
Pd   -0.5758153    0.5919535   -0.7192242 
P    -1.2119898   -1.2167721    0.6335714 
P     1.2174442    1.2382733    0.6161967 
H    -1.1954863    2.9671356   -1.6407223 
H    -2.9639146    1.2506063   -1.5354870 
C     2.7852060    4.2480132   -4.1059241 
C     2.5377059    2.8898582   -4.3667257 
C     1.4648016    2.2350304   -3.7533628 
C     0.5955914    2.9298297   -2.8788236 
C     0.8516112    4.2997052   -2.6360171 
C     1.9372204    4.9497532   -3.2361623 
H     3.6301730    4.7552803   -4.5821888 
H     3.1912307    2.3364714   -5.0489623 
H     1.3113486    1.1676913   -3.9448725 
H     0.1773879    4.8621492   -1.9815335 
H     2.1140188    6.0111753   -3.0338190 
C    -4.6699813   -2.6984153   -3.7699357 
C    -3.3804704   -2.4482379   -4.2675121 
C    -2.6142138   -1.3951208   -3.7567002 
C    -3.1253582   -0.5511766   -2.7422636 
C    -4.4397383   -0.7962659   -2.2785630 
C    -5.1988605   -1.8625086   -2.7750407 
H    -5.2622595   -3.5289219   -4.1668165 
H    -2.9679174   -3.0829650   -5.0584310 
H    -1.6076451   -1.2322484   -4.1547120 
H    -4.8731512   -0.1289872   -1.5261140 
H    -6.2110195   -2.0325099   -2.3935712 
Fe    2.8039200   -1.7605794    2.0477210 
C     1.8003486    0.0247536    1.8428655 
C     0.9907771   -0.9617089    2.5517279 
C     1.7383885   -1.3566151    3.7242873 
C     2.9831801   -0.6545103    3.7461447 
C     3.0348118    0.1809797    2.5894513 
C     4.5108431   -2.2832838    1.0406710 
C     4.4263792   -2.9631030    2.3016936 
C     3.2176382   -3.7386417    2.3095250 
C     2.5570829   -3.5396770    1.0520356 
C     3.3565152   -2.6427763    0.2689123 
C    -0.4473152   -1.4058303    2.3483003 
H     1.4237732   -2.0911411    4.4658967 
H     3.7720272   -0.7696504    4.4916184 
H     3.8654334    0.8312085    2.3165804 
H     5.3125739   -1.6122414    0.7272877 
H     5.1441640   -2.8879250    3.1204805 
H     2.8599044   -4.3579719    3.1342287 
H     1.6229673   -4.0052663    0.7396701 
H     3.1343675   -2.3032653   -0.7424653 
H     1.7438171    2.9558900    2.2206565 
C    -0.5331125    3.4608917    3.7745364 
C    -0.2007068    2.2665087    2.8608071 
C     0.7829548    2.6751971    1.7462359 
C     0.2397688    3.8747530    0.9471754 
C    -0.0760173    5.0657432    1.8691368 
C    -1.0636804    4.6618836    2.9752635 
H     0.3821005    3.7601485    4.3219016 
H    -1.2678512    3.1477978    4.5383144 
H    -1.1293887    1.8904348    2.3923014 
H     0.2222616    1.4424098    3.4609336 
H     0.9543746    4.1734619    0.1607451 
H    -0.6885710    3.5576984    0.4329428 
H     0.8640668    5.4306594    2.3271010 
H    -0.4813924    5.9016801    1.2706844 
H    -2.0355720    4.3936208    2.5142575 
H    -1.2584138    5.5153893    3.6486238 
H     2.2093018    2.3684898   -1.2137509 
C     4.5775932    0.9978150   -1.9072610 
C     3.4139439    0.5951819   -0.9862689 
C     2.6918204    1.8186747   -0.3855580 
C     3.6713253    2.8030586    0.2917574 
C     4.7913874    3.2014490   -0.6884698 
C     5.5435832    1.9667640   -1.2088026 
H     4.1719682    1.4856740   -2.8117600 
H     5.1101001    0.0891519   -2.2430628 
H     3.7908676   -0.0268980   -0.1567926 
H     2.6815903   -0.0254776   -1.5378079 
H     3.1375414    3.7076202    0.6304253 
H     4.1295575    2.3494264    1.1887360 
H     4.3448621    3.7475414   -1.5420186 
H     5.4857684    3.8994285   -0.1871414 
H     6.0357771    1.4527093   -0.3586521 
H     6.3480028    2.2706166   -1.9021816 
H    -3.4906087   -1.1639756    0.0146555 
C    -4.8412063    0.7267872    1.5283073 
C    -3.3302440    0.4423142    1.4569064 
C    -3.0420958   -1.0139545    1.0147836 
C    -3.7321300   -1.9874064    1.9966500 
C    -5.2506817   -1.7233103    2.0290678 
C    -5.5612658   -0.2764987    2.4427043 
H    -5.2699219    0.6678644    0.5088276 
H    -5.0065503    1.7615438    1.8786001 
H    -2.8891294    0.6086560    2.4592868 
H    -2.8312884    1.1565948    0.7746234 
H    -3.5449569   -3.0383968    1.7195503 
H    -3.3213271   -1.8416277    3.0137159 
H    -5.6717011   -1.9230862    1.0237669 
H    -5.7334480   -2.4351829    2.7220808 
H    -5.2285947   -0.1190396    3.4877187 
H    -6.6507259   -0.0958550    2.4281896 
H    -0.4671526   -3.5173135    0.4981429 
C     0.4852498   -3.9478795   -2.0822059 
C     0.1154076   -2.6271379   -1.3859786 
C    -0.9186056   -2.8502316   -0.2581023 
C    -2.1821856   -3.5447933   -0.8101724 
C    -1.8097265   -4.8663335   -1.5101171 
C    -0.7651557   -4.6615880   -2.6190436 
H     1.0075667   -4.6099246   -1.3643054 
H     1.2022229   -3.7490492   -2.8996362 
H    -0.3225938   -1.9300611   -2.1266230 
H     1.0097957   -2.1270241   -0.9764890 
H    -2.9012933   -3.7500290   -0.0004619 
H    -2.6887497   -2.8789044   -1.5290184 
H    -1.4115866   -5.5755372   -0.7572743 
H    -2.7248262   -5.3258255   -1.9250221 
H    -1.2114509   -4.0509907   -3.4257465 
H    -0.4898968   -5.6323756   -3.0682371 
H    -1.0719115   -0.6947930    2.9265385 
C    -0.6607696   -2.8236209    2.9337141 
H    -1.6017240   -3.2845874    2.6032360 
H     0.1728803   -3.4809379    2.6390699 
H    -0.6869317   -2.7818441    4.0352773 
