122
Energy =
C     1.2278942   -1.8557809   -2.9418792 
C     2.2275997   -0.9153648   -2.5621212 
C     3.0181911   -1.1213401   -1.4094466 
H     2.3169494    0.0301074   -3.1118103 
Pd    0.7752422   -1.0231181   -0.8811717 
P     1.0134439    0.4146003    0.9492056 
P    -1.4625119   -1.8375580   -0.7742326 
H     1.3808711   -2.9016427   -2.6422055 
H     3.0631475   -2.1493376   -1.0162967 
C    -1.4483048   -1.3395793   -6.2675424 
C    -0.8304483   -0.2161155   -5.6922000 
C     0.0436488   -0.3700709   -4.6139773 
C     0.3197097   -1.6524459   -4.0824989 
C    -0.2985541   -2.7737227   -4.6795365 
C    -1.1743734   -2.6182012   -5.7603856 
H    -2.1362292   -1.2168735   -7.1103786 
H    -1.0363609    0.7866143   -6.0803105 
H     0.5026338    0.5218632   -4.1775261 
H    -0.0829365   -3.7739474   -4.2901060 
H    -1.6441963   -3.5002410   -6.2077470 
C     6.2093685    1.3561433    0.0506881 
C     6.1083286    0.0100337    0.4327358 
C     5.0532647   -0.7771111   -0.0413990 
C     4.0880494   -0.2388295   -0.9250552 
C     4.2133900    1.1154054   -1.3179435 
C     5.2580921    1.9038906   -0.8264995 
H     7.0208249    1.9773223    0.4415499 
H     6.8459743   -0.4213102    1.1159449 
H     4.9702560   -1.8221809    0.2757090 
H     3.4957909    1.5596330   -2.0131027 
H     5.3361866    2.9518094   -1.1337536 
Fe   -3.2299802    1.8891361    2.4085553 
C    -1.6443578    1.0394164    1.4858910 
C    -2.8258853    0.2114781    1.2928716 
C    -3.8366329    1.0323318    0.6716665 
H    -4.8383798    0.6925778    0.4093037 
C    -3.2851657    2.3283402    0.4250651 
H    -3.8067362    3.1715755   -0.0300928 
C    -1.9440451    2.3433612    0.9281022 
H    -1.2882288    3.2137684    0.9410094 
C    -2.6089611    2.4984064    4.2595296 
H    -1.5860854    2.4781866    4.6420221 
C    -3.5755725    1.4451375    4.3838482 
H    -3.4184675    0.4925637    4.8933827 
C    -4.7860501    1.8741762    3.7394151 
H    -5.7116766    1.3017602    3.6546446 
C    -4.5666488    3.1961406    3.2244583 
H    -5.2881104    3.7943892    2.6651180 
C    -3.2210127    3.5820854    3.5453667 
H    -2.7365291    4.5210859    3.2695678 
C    -2.9917085   -1.2365787    1.5859150 
C    -2.3662466   -2.2485283    0.8011056 
C    -2.5184750   -3.6002509    1.1793888 
H    -2.0443052   -4.3896366    0.5913714 
C    -3.3005596   -3.9635942    2.2832121 
H    -3.3977035   -5.0201723    2.5524029 
C    -3.9760901   -2.9761769    3.0099474 
H    -4.6173669   -3.2478655    3.8546512 
C    -3.8171067   -1.6316643    2.6559472 
H    -4.3220720   -0.8445347    3.2202663 
C     2.5019399    0.1043475    1.9843065 
C     3.4288603    1.0837993    2.3843699 
H     3.3353633    2.1219641    2.0603039 
C     4.5319110    0.7236533    3.1692090 
C     4.7337148   -0.6081746    3.5614112 
H     5.6055378   -0.8866074    4.1592758 
C     3.8247286   -1.5856149    3.1401830 
C     2.7168218   -1.2350645    2.3569294 
H     2.0267619   -2.0166455    2.0199063 
C     1.1856256    2.1202851    0.2693108 
C     1.2857079    3.2731491    1.0707247 
H     1.3513956    3.2036942    2.1608029 
C     1.2507452    4.5457407    0.4835759 
C     1.1410152    4.6964105   -0.9080072 
H     1.1205223    5.6922350   -1.3576419 
C     1.0478899    3.5489299   -1.7044857 
C     1.0548579    2.2776269   -1.1172184 
H     0.9462765    1.3847518   -1.7430269 
C    -0.3684785    0.6831896    2.2129312 
H    -0.0464583    1.5814198    2.7697867 
C    -0.4599599   -0.4890746    3.2019077 
H    -1.3579788   -0.3559300    3.8263069 
H    -0.5495276   -1.4623439    2.6929290 
H     0.4247642   -0.5162506    3.8580318 
C     1.2049360    5.7552714    1.3935060 
F     1.5551654    6.8880036    0.7559768 
F    -0.0581375    5.9254672    1.8727243 
F     2.0171579    5.5992420    2.4630900 
C     0.9247366    3.6234544   -3.2086607 
F     1.9074283    2.8878414   -3.8059303 
F    -0.2542370    3.0854826   -3.6318524 
F     0.9998535    4.8767979   -3.6800171 
C     5.5408276    1.7722201    3.5913126 
F     6.8092091    1.3309792    3.3982055 
F     5.3969953    2.9202373    2.8877822 
F     5.4178725    2.0758247    4.9017031 
C     4.0798810   -3.0508890    3.4140785 
F     2.9359140   -3.7042491    3.7241540 
F     4.5869021   -3.6548742    2.3005893 
F     4.9600113   -3.2417771    4.4141576 
C    -1.2780196   -6.0552112   -2.7657087 
C    -0.3022033   -5.6412782   -1.8434646 
C    -0.3779536   -4.3642606   -1.2728820 
C    -1.4310434   -3.4852284   -1.6117287 
C    -2.3977506   -3.9041942   -2.5437614 
C    -2.3203644   -5.1850545   -3.1130737 
H    -1.2202194   -7.0519435   -3.2148092 
H     0.5172304   -6.3133655   -1.5686174 
H     0.3862244   -4.0451644   -0.5520783 
H    -3.2003198   -3.2288517   -2.8502843 
H    -3.0754485   -5.4958197   -3.8425060 
C    -4.4657295    0.8376419   -3.0929347 
C    -4.9256748   -0.3271049   -2.4552340 
C    -4.0333266   -1.1408048   -1.7462998 
C    -2.6639891   -0.8008133   -1.6895222 
C    -2.2147939    0.3733226   -2.3175828 
C    -3.1117881    1.1916276   -3.0166097 
H    -5.1688079    1.4736896   -3.6408624 
H    -5.9863076   -0.5956188   -2.5007293 
H    -4.4035480   -2.0247859   -1.2155393 
H    -1.1611427    0.6542987   -2.2433433 
H    -2.7463584    2.1048294   -3.4957106 
