98
Energy =
C    -1.0996781   -1.7152195   -2.2506779 
C    -0.6903605   -0.5348850   -2.9212616 
C     0.6827928   -0.1981089   -3.0128106 
H    -1.4497828    0.1683099   -3.2843963 
Pd   -0.0115777   -0.2920245   -0.8309411 
P     1.6599637    1.1529138    0.0236222 
P    -1.0659923   -1.0009868    1.1568897 
H    -0.3509009   -2.5162358   -2.1555893 
H     1.3967410   -1.0269144   -2.9036188 
C    -5.1543193   -3.1197401   -1.9168416 
C    -4.0793487   -4.0209441   -1.9072687 
C    -2.7659619   -3.5476889   -2.0190688 
C    -2.4992682   -2.1648863   -2.1474322 
C    -3.5946254   -1.2713459   -2.1746164 
C    -4.9059524   -1.7434503   -2.0568104 
H    -6.1815764   -3.4860587   -1.8228120 
H    -4.2633125   -5.0959299   -1.8115357 
H    -1.9294130   -4.2553831   -2.0041219 
H    -3.4182259   -0.1953663   -2.2754246 
H    -5.7408480   -1.0352026   -2.0738505 
C     2.3418374    3.2610184   -4.9616327 
C     0.9787458    3.2428908   -4.6197896 
C     0.4216701    2.1225079   -3.9952473 
C     1.2160530    0.9908546   -3.6968792 
C     2.5804161    1.0152965   -4.0687403 
C     3.1393329    2.1391872   -4.6896356 
H     2.7756267    4.1414485   -5.4462530 
H     0.3485159    4.1113583   -4.8373042 
H    -0.6372268    2.1358463   -3.7186642 
H     3.2061977    0.1378676   -3.8719377 
H     4.1985243    2.1371127   -4.9667655 
Fe    1.0774716    0.4823761    3.2700807 
C     0.0033065   -1.0781652    2.6279726 
C    -0.3227381   -0.7771813    4.0094719 
H    -1.3013432   -0.4921329    4.3986974 
C     0.8779199   -0.8880083    4.7852032 
H     0.9636686   -0.6918632    5.8554378 
C     1.9476429   -1.2638176    3.9084870 
H     2.9915855   -1.4042074    4.1939218 
C     1.4160166   -1.3901866    2.5841828 
C     1.5178839    1.7106499    1.7540589 
C     2.5478714    1.7827466    2.7743128 
H     3.6052154    1.5452066    2.6499102 
C     1.9347944    2.1986999    4.0013464 
H     2.4451526    2.3148100    4.9590295 
C     0.5374409    2.4015951    3.7596187 
H    -0.2061429    2.7000622    4.5005774 
C     0.2769016    2.1130674    2.3811096 
H     1.9756355   -1.6557471    1.6860549 
H    -0.6921256    2.1727050    1.8859278 
C     2.1373704    2.7618855   -0.8378335 
C     3.6391418    2.8834143   -0.5033907 
C     4.2842839    1.5036568   -0.7050885 
C     3.3991688    0.4114379   -0.0425885 
H     2.0234441    2.5688349   -1.9188358 
H     4.1141537    3.6488705   -1.1431747 
H     3.7567629    3.2200048    0.5444332 
H     4.3480138    1.2943306   -1.7887106 
H     5.3128057    1.4722637   -0.3063146 
H     3.6809981    0.2847790    1.0176889 
C    -1.9488292   -2.6524198    1.2223961 
C    -3.0075506   -2.4296886    2.3204356 
C    -3.6629846   -1.0675942    2.0337636 
C    -2.5656961   -0.0075504    1.7297619 
H    -2.4764016   -2.7301100    0.2555088 
H    -3.7587070   -3.2389165    2.3143275 
H    -2.5279795   -2.4405094    3.3176469 
H    -4.3094671   -1.1676923    1.1413405 
H    -4.3066160   -0.7380493    2.8671237 
H    -2.2402654    0.4850140    2.6638784 
C    -3.0067479    1.0779925    0.7302375 
H    -2.1361535    1.7006244    0.4518713 
H    -3.3348796    0.5861473   -0.2026574 
C    -4.1274144    1.9732370    1.2744313 
H    -4.4015330    2.7505036    0.5406456 
H    -5.0372044    1.3909545    1.5023708 
H    -3.8118447    2.4813915    2.2040795 
C    -1.0122752   -3.8601405    1.3804832 
H    -0.2768293   -3.8476631    0.5519126 
H    -0.4288576   -3.7551785    2.3145671 
C    -1.7561948   -5.2040188    1.3829542 
H    -1.0434238   -6.0452120    1.4251930 
H    -2.4266757   -5.2917557    2.2552821 
H    -2.3713459   -5.3224296    0.4732760 
C     1.2949939    3.9825165   -0.4382765 
H     1.7463385    4.8700317   -0.9212179 
H     1.3897183    4.1463031    0.6516940 
C    -0.1832692    3.8866938   -0.8326775 
H    -0.2990069    3.8568550   -1.9284764 
H    -0.6475515    2.9673487   -0.4294847 
H    -0.7546298    4.7495696   -0.4508166 
C     3.4943461   -0.9693436   -0.7191282 
H     3.2754282   -0.8575654   -1.7960185 
H     2.7078074   -1.6371249   -0.3174398 
C     4.8707197   -1.6240613   -0.5383383 
H     4.9022262   -2.6161031   -1.0203002 
H     5.6722405   -1.0091446   -0.9835213 
H     5.1061685   -1.7592406    0.5330015 
