122
Energy =
C    -1.9337796   -2.0926964    1.5315513 
C    -1.3222590   -1.6385040    2.7232941 
C    -1.5071805   -0.2885944    3.1427173 
H    -0.6377373   -2.2917145    3.2787424 
Pd   -0.4787282   -0.3426715    1.1627744 
P     0.5541570    1.7863976    1.1745136 
P     0.0603218   -0.9768033   -1.0545330 
H    -2.7763897   -1.4901303    1.1655076 
H    -2.4170966    0.2210614    2.7906817 
C    -1.9858928   -6.1177099    0.0349038 
C    -2.9331105   -5.1785029   -0.3980492 
C    -2.8798943   -3.8637927    0.0787982 
C    -1.8838015   -3.4601699    1.0005391 
C    -0.9200107   -4.4131095    1.4054234 
C    -0.9772657   -5.7269755    0.9321091 
H    -2.0196486   -7.1449494   -0.3396470 
H    -3.7122453   -5.4720877   -1.1080247 
H    -3.6389568   -3.1399664   -0.2397492 
H    -0.1139075   -4.1286532    2.0889038 
H    -0.2198303   -6.4468657    1.2566591 
C     0.1121601    1.2987033    6.7964105 
C     0.8654835    0.3807582    6.0428062 
C     0.3485595   -0.1453176    4.8550739 
C    -0.9254330    0.2504657    4.3856611 
C    -1.6665634    1.1816429    5.1460764 
C    -1.1578017    1.6901451    6.3481139 
H     0.5169642    1.7058843    7.7285430 
H     1.8614648    0.0787019    6.3823997 
H     0.9510195   -0.8458434    4.2680841 
H    -2.6503527    1.5051531    4.7896716 
H    -1.7504430    2.4036777    6.9297384 
Fe   -3.6883709    1.8020735   -1.7298849 
C    -2.3006076    0.3986621   -1.2217828 
C    -1.8084761    1.7387174   -0.9142294 
C    -2.7570612    2.3421434   -0.0060303 
H    -2.6996309    3.3535878    0.3936626 
C    -3.8094597    1.4040554    0.2542296 
H    -4.6903461    1.5867288    0.8726214 
C    -3.5349937    0.2139398   -0.4964085 
H    -4.1647128   -0.6774966   -0.5436724 
C    -4.8971387    1.2909693   -3.2996745 
H    -5.1108464    0.2798658   -3.6516054 
C    -3.8339398    2.1414924   -3.7545116 
H    -3.1083889    1.8943433   -4.5311316 
C    -3.9119289    3.3778462   -3.0290026 
H    -3.2391702    4.2313462   -3.1317565 
C    -5.0262451    3.2938463   -2.1312465 
H    -5.3393871    4.0642498   -1.4242464 
C    -5.6366023    2.0058487   -2.2993295 
H    -6.4959158    1.6262675   -1.7432282 
C    -0.5172186    2.3230336   -1.3924660 
C     0.6390228    2.4083274   -0.5622974 
C     1.8393663    2.9312506   -1.0826697 
H     2.7367896    2.9575011   -0.4584207 
C     1.9155782    3.3733876   -2.4089487 
H     2.8622410    3.7537116   -2.8043546 
C     0.7813065    3.3086092   -3.2285498 
H     0.8329158    3.6447656   -4.2681224 
C    -0.4137271    2.7895520   -2.7185899 
H    -1.3051084    2.7373293   -3.3461215 
C     1.5373980   -0.2876664   -1.9427862 
C     1.5787384    0.0310784   -3.3117003 
H     0.6931879   -0.0370629   -3.9385187 
C     2.7799452    0.4436749   -3.9050341 
C     3.9629193    0.5261460   -3.1593098 
H     4.8999983    0.8341886   -3.6302478 
C     3.9226866    0.2107382   -1.7965748 
C     2.7223244   -0.1853647   -1.1918453 
H     2.7212278   -0.4017938   -0.1215559 
C     0.4875560   -2.7641877   -1.2361808 
C     1.5366675   -3.2426265   -0.4289826 
H     2.0285188   -2.5827547    0.2921290 
C     1.9547580   -4.5742490   -0.5226811 
C     1.3300940   -5.4537932   -1.4168580 
H     1.6465912   -6.4980189   -1.4794631 
C     0.2672541   -4.9853055   -2.1995165 
C    -0.1570975   -3.6506557   -2.1136078 
H    -0.9974823   -3.3299733   -2.7328336 
C    -1.5766830   -0.7131583   -1.9656863 
H    -2.0879582   -1.6504075   -1.6732386 
C    -1.6213954   -0.6105702   -3.4992874 
H    -2.6728111   -0.6946759   -3.8181799 
H    -1.2511549    0.3657778   -3.8433298 
H    -1.0455374   -1.4106902   -3.9941615 
C     2.9885995   -5.0878828    0.4530952 
F     3.6701938   -6.1427392   -0.0315234 
F     3.8785728   -4.1266106    0.7943097 
F     2.3852211   -5.4919745    1.6098178 
C    -0.4209111   -5.9251299   -3.1676174 
F    -1.6997329   -5.5388276   -3.4076609 
F     0.2171454   -5.9626334   -4.3582773 
F    -0.4576283   -7.1903447   -2.6877032 
C     2.7962875    0.8710745   -5.3568174 
F     3.8782392    0.3948257   -6.0054543 
F     1.6914166    0.4576592   -6.0200579 
F     2.8377625    2.2287598   -5.4561014 
C     5.1560224    0.3750336   -0.9374016 
F     5.1111363    1.5544134   -0.2571360 
F     5.2549236   -0.6102091   -0.0132926 
F     6.2888455    0.3771017   -1.6676351 
C     4.7991141    1.3263452    3.0251382 
C     4.3288811    2.6047939    2.6861499 
C     3.0632527    2.7626637    2.1082534 
C     2.2593239    1.6317594    1.8490081 
C     2.7320940    0.3548543    2.2134519 
C     3.9979360    0.1997354    2.7931323 
H     5.7901619    1.2099415    3.4753132 
H     4.9510915    3.4854418    2.8752571 
H     2.6928133    3.7661179    1.8732756 
H     2.0846777   -0.5175723    2.0483543 
H     4.3568614   -0.7995075    3.0590129 
C    -0.8404640    5.5365989    3.5699447 
C    -0.2977591    4.4241466    4.2293690 
C     0.1012379    3.2948423    3.5027157 
C    -0.0465045    3.2655635    2.0996234 
C    -0.5660899    4.3983189    1.4385256 
C    -0.9650652    5.5240022    2.1726304 
H    -1.1484027    6.4185414    4.1410302 
H    -0.1755055    4.4301488    5.3170814 
H     0.5586335    2.4511032    4.0265482 
H    -0.6323792    4.4178344    0.3466371 
H    -1.3594939    6.3996726    1.6465277 
