124
Energy =
C     2.4874029    1.5780493    1.5595693 
C     3.1665878    1.3873814    0.3320309 
C     2.5650414    1.8286395   -0.8892253 
H     4.0622600    0.7546485    0.2976797 
Pd    1.2453826    0.3512880    0.1063267 
P    -0.3611775    0.0037525   -1.5180362 
P     0.1235809   -0.9614788    1.6907185 
H     1.7326443    2.3786588    1.5783114 
H     1.8976032    2.7013647   -0.8303128 
C     3.5208527    0.2460635    5.5093774 
C     2.4361908    1.1102413    5.2998390 
C     2.1157751    1.5296067    4.0041589 
C     2.8757251    1.0964555    2.8916780 
C     3.9527866    0.2088075    3.1165876 
C     4.2725857   -0.2062429    4.4122051 
H     3.7764512   -0.0826414    6.5219524 
H     1.8382875    1.4603089    6.1478025 
H     1.2633892    2.1995552    3.8425007 
H     4.5455318   -0.1609589    2.2739456 
H     5.1107849   -0.8926393    4.5688334 
C     4.0096704    1.0368575   -4.8664292 
C     3.1546337    2.1190141   -4.6150491 
C     2.7017447    2.3709103   -3.3136206 
C     3.0956931    1.5471444   -2.2355030 
C     3.9637708    0.4617511   -2.5040010 
C     4.4149751    0.2112887   -3.8029896 
H     4.3630204    0.8364250   -5.8831097 
H     2.8337116    2.7725233   -5.4329767 
H     2.0341693    3.2181858   -3.1247024 
H     4.2736572   -0.2049486   -1.6909761 
H     5.0835562   -0.6354214   -3.9917122 
Fe   -2.7524690    0.3872590    1.0214990 
C    -1.9243449   -0.3498572   -0.6538801 
C    -2.2024310   -1.4091575    0.3159661 
C    -3.5906530   -1.9921872    0.0775371 
C    -4.3028222   -0.9324927   -0.8104875 
C    -3.2492432    0.1537689   -0.9343945 
C    -4.2941907    0.5649413    2.3214983 
C    -4.7876339    0.7577419    0.9927101 
C    -5.2534573   -0.5556428    0.3782536 
C    -4.5564507   -1.6182953    1.2807722 
C    -3.8515997   -0.7955380    2.3338464 
C    -1.1605423   -2.1976153    1.0824247 
H    -3.6216038   -3.0436617   -0.2582216 
H    -4.7568590   -1.2824594   -1.7539879 
H    -3.4266362    1.0443145   -1.5532374 
H    -4.2380703    1.2872331    3.1392838 
H    -5.1318867    1.7249353    0.6035560 
H    -6.3418588   -0.6567139    0.2230763 
H    -5.1740218   -2.4478071    1.6668249 
H    -3.3857175   -1.2610927    3.2071876 
H    -1.6382195   -2.5787638    2.0062809 
C    -0.5768855   -3.3908904    0.3042941 
H    -0.0397674   -3.0580998   -0.5984674 
H     0.1076025   -3.9777271    0.9396481 
H    -1.3953321   -4.0575039   -0.0173101 
C     3.0366459   -3.5031559    4.3774261 
C     1.9762814   -2.7777719    4.9499623 
C     1.1229930   -2.0139276    4.1534628 
C     1.2792970   -1.9356031    2.7523550 
C     2.3759683   -2.6286198    2.1578651 
C     3.2106574   -3.4018139    2.9891037 
H     1.8205308   -2.7972317    6.0342689 
H     0.3380478   -1.4438307    4.6476946 
H     4.0491222   -3.9339315    2.5230256 
C    -2.0628624    2.4399272    3.9867547 
C    -1.9534643    1.1844103    4.6465910 
C    -1.4145134    0.1032400    3.9452514 
C    -0.9340701    0.2364764    2.6111672 
C    -1.1289915    1.4937526    1.9482307 
C    -1.6916277    2.6070243    2.6539150 
H    -2.4664820    3.2965107    4.5401477 
H    -1.3622400   -0.8637324    4.4515103 
H    -0.5294452    1.6986435    1.0467179 
C     3.9797342   -4.3122430    5.2358099 
H     3.4248325   -4.9581606    5.9385025 
H     4.6414967   -4.9493222    4.6269666 
H     4.6177520   -3.6442646    5.8448291 
C     2.7274157   -2.5789363    0.6857605 
H     3.8216692   -2.6097774    0.5511008 
H     2.3005224   -3.4305121    0.1279770 
H     2.3488060   -1.6535192    0.2049262 
C    -2.4187591    1.0372979    6.0771540 
H    -2.2313636    0.0219247    6.4627985 
H    -1.8995407    1.7567746    6.7360927 
H    -3.5013149    1.2416388    6.1662955 
C    -1.8414913    3.9298380    1.9394359 
H    -2.6492503    3.8750166    1.1846814 
H    -2.0895793    4.7452509    2.6373090 
H    -0.9154201    4.2008049    1.4006683 
C     0.7254938   -3.4711500   -4.4293759 
C     1.6482890   -2.9242934   -3.5550401 
C     1.2676591   -1.8522029   -2.7117530 
C    -0.0185728   -1.3151529   -2.7503130 
H     1.0024345   -4.3127232   -5.0738750 
H     2.6689986   -3.3160995   -3.5031133 
H     1.9952406   -1.4306799   -2.0117785 
C    -0.9848449   -1.8309449   -3.6874910 
C    -0.5969680   -2.9449232   -4.5234526 
C    -1.5421651   -3.4876196   -5.4437650 
C    -2.8131231   -2.9508752   -5.5605203 
C    -3.1843726   -1.8362796   -4.7647789 
C    -2.2930475   -1.2910336   -3.8536761 
H    -1.2390521   -4.3364508   -6.0664633 
H    -3.5278439   -3.3750039   -6.2730649 
H    -4.1814935   -1.3973779   -4.8761514 
H    -2.5886553   -0.4209722   -3.2648768 
C    -0.3882624    1.6373719   -3.8105848 
C    -0.6955701    1.5330218   -2.4591646 
C    -1.1660780    2.6818621   -1.7487910 
C    -1.3223510    3.8928995   -2.3957793 
H    -0.0076468    0.7706203   -4.3606436 
H    -1.4128773    2.5915276   -0.6859491 
H    -1.6865110    4.7673281   -1.8446281 
C    -1.0173779    4.0292035   -3.7852604 
C    -0.5475831    2.8719821   -4.5055544 
C    -0.2342640    2.9980534   -5.8903019 
C    -0.3774430    4.2152953   -6.5377802 
C    -0.8415533    5.3555161   -5.8283043 
C    -1.1559768    5.2643438   -4.4808004 
H     0.1232169    2.1162783   -6.4330714 
H    -0.1349743    4.3026089   -7.6019543 
H    -0.9509091    6.3104681   -6.3525252 
H    -1.5143666    6.1439463   -3.9347214 
