116
Energy =
C     2.3771870   -0.7098908   -1.8581809 
C     1.5571519   -1.4391962   -2.7850928 
C     0.6906742   -0.7843782   -3.6685788 
H     1.5931229   -2.5360489   -2.7809200 
Pd    0.2944413   -0.4696686   -1.1985544 
P    -2.0418317   -0.5839382   -0.7680830 
P     0.9275028    0.7192552    0.7381048 
H     2.6722799    0.3012111   -2.1734259 
H     0.7649602    0.3123808   -3.7166385 
C     5.1690707   -2.6125725    0.8227250 
C     4.0053291   -3.2920123    0.4234547 
C     3.0958857   -2.6853830   -0.4490278 
C     3.3364047   -1.3874391   -0.9610295 
C     4.5235183   -0.7266456   -0.5678805 
C     5.4245088   -1.3276365    0.3213002 
H     5.8739096   -3.0858894    1.5136223 
H     3.8024023   -4.2986085    0.8036218 
H     2.1726281   -3.2120953   -0.7151659 
H     4.7464966    0.2665175   -0.9747416 
H     6.3354917   -0.7950256    0.6136294 
C    -1.5519005   -2.4578474   -6.9252419 
C    -1.4904220   -1.0693632   -6.7318589 
C    -0.7577309   -0.5450124   -5.6621801 
C    -0.0747741   -1.3941758   -4.7562395 
C    -0.1288524   -2.7922054   -4.9820223 
C    -0.8620102   -3.3148262   -6.0498119 
H    -2.1236557   -2.8723622   -7.7617562 
H    -2.0100518   -0.3944551   -7.4195617 
H    -0.7061136    0.5403581   -5.5189358 
H     0.4081380   -3.4778691   -4.3195046 
H    -0.8923457   -4.3977549   -6.2078204 
Fe   -1.4395801    1.9699521    3.2659768 
C    -0.4893370    1.6135684    1.4716770 
C    -1.8718225    1.1450509    1.4403784 
C    -2.7227812    2.2712056    1.7258963 
C    -1.9024906    3.4268951    1.9292489 
C    -0.5354857    3.0278348    1.7935293 
C    -0.3326441    2.1572108    4.9806486 
C    -1.4719937    3.0272260    5.0085533 
C    -2.6525785    2.2186827    4.8899414 
C    -2.2428855    0.8473369    4.7969172 
C    -0.8135006    0.8092585    4.8521375 
C    -2.3364956   -0.2444670    1.0885353 
H    -3.8096650    2.2465226    1.8139463 
H    -2.2536843    4.4258631    2.1937907 
H     0.3238731    3.6840276    1.9183838 
H     0.7108025    2.4693715    5.0500147 
H    -1.4466285    4.1162301    5.0797528 
H    -3.6800223    2.5859867    4.8556538 
H    -2.9023420   -0.0178584    4.7144592 
H    -0.2017897   -0.0913181    4.8205816 
H    -1.6108135   -0.9498343    1.5263795 
C    -3.7210091   -0.5616962    1.6841628 
H    -3.7136871   -0.2570358    2.7431848 
H    -4.5395653   -0.0242770    1.1862203 
H    -3.9449107   -1.6375333    1.6451803 
C    -2.6575517   -2.3905879   -1.0244308 
C    -3.0435402    0.6799313   -1.8025213 
C    -2.0665469   -3.2344673    0.1309710 
H    -2.2530041   -4.3031244   -0.0794883 
H    -0.9728378   -3.0929603    0.2051180 
H    -2.5150432   -3.0094377    1.1114942 
C    -2.1819679    1.9661387   -1.8525426 
H    -2.7239776    2.7373519   -2.4307116 
H    -1.9719027    2.3755436   -0.8516766 
H    -1.2189802    1.7734640   -2.3565187 
C    -4.1913626   -2.5504829   -1.0844560 
H    -4.4300571   -3.6270161   -1.1682516 
H    -4.7025974   -2.1670255   -0.1895585 
H    -4.6198880   -2.0520353   -1.9684304 
C    -2.0398120   -2.9284085   -2.3322983 
H    -2.3341734   -3.9861648   -2.4619541 
H    -2.3680959   -2.3797865   -3.2259184 
H    -0.9385911   -2.8837789   -2.2885275 
C    -3.1847610    0.1464250   -3.2417895 
H    -3.5612559    0.9608360   -3.8876616 
H    -2.2176270   -0.1837881   -3.6503723 
H    -3.8988842   -0.6891988   -3.3159652 
C    -4.4384917    1.0176051   -1.2397936 
H    -4.9436282    1.7038029   -1.9446861 
H    -5.0773765    0.1273318   -1.1292789 
H    -4.3732878    1.5354682   -0.2712624 
H     2.9189464    1.3618258   -0.3068765 
C     3.9105947    3.8188454    0.3225251 
C     2.8718275    2.9755247    1.0895924 
C     2.1394692    2.0202274    0.1191056 
C     1.4940611    2.8066604   -1.0477364 
C     2.5316849    3.6648205   -1.7910578 
C     3.2724627    4.6075087   -0.8305153 
H     4.6927895    3.1454780   -0.0816751 
H     4.4178517    4.5014147    1.0275945 
H     2.1577192    3.6532515    1.5881944 
H     3.3806060    2.4106922    1.8842660 
H     1.0100165    2.0980215   -1.7467259 
H     0.6867850    3.4522422   -0.6532718 
H     3.2649332    2.9969950   -2.2868703 
H     2.0328611    4.2373701   -2.5936034 
H     2.5557148    5.3444588   -0.4171831 
H     4.0414074    5.1848375   -1.3738426 
H     2.6396556   -0.7785732    1.3667996 
C     1.5611465   -2.6104698    3.2136102 
C     0.8682619   -1.5809233    2.3055148 
C     1.7941971   -0.3921829    1.9666922 
C     2.3577591    0.2616037    3.2425416 
C     3.0407999   -0.7851454    4.1457971 
C     2.1128983   -1.9594014    4.4905841 
H     2.3948596   -3.0719081    2.6525442 
H     0.8520993   -3.4211736    3.4615238 
H    -0.0377551   -1.1920189    2.8103718 
H     0.5374520   -2.0616853    1.3664039 
H     3.0930568    1.0383177    2.9855987 
H     1.5377163    0.7656510    3.7779126 
H     3.9347462   -1.1742721    3.6199775 
H     3.4021275   -0.2925446    5.0664223 
H     1.2734743   -1.5997987    5.1182644 
H     2.6526383   -2.7069103    5.0986764 
