110
Energy =
C     0.4295111    0.5246771   -2.9274482 
C    -0.9812161    0.3423697   -2.8641870 
C    -1.8130514    1.2970669   -2.2537327 
H    -1.4188278   -0.5848412   -3.2532628 
Pd   -0.1966124    0.2968041   -0.7746540 
P    -1.5257781    0.2729300    1.2082140 
P     1.9379109   -0.2779111    0.0778862 
H     0.7841374    1.5629138   -2.8705408 
H    -1.3709783    2.2821854   -2.0422547 
C     3.0719305   -2.1119610   -5.0685251 
C     1.8980138   -2.6222302   -4.4879317 
C     1.0335948   -1.7780977   -3.7840711 
C     1.3187945   -0.3982038   -3.6553098 
C     2.4961118    0.1039554   -4.2567998 
C     3.3662365   -0.7451886   -4.9521378 
H     3.7507175   -2.7774208   -5.6113891 
H     1.6642606   -3.6883519   -4.5747826 
H     0.1475366   -2.1993413   -3.2969951 
H     2.7245436    1.1728176   -4.1818206 
H     4.2738072   -0.3376324   -5.4090016 
C    -6.1160597    1.3196082   -2.2426002 
C    -5.3897672    2.4677481   -1.8920643 
C    -3.9904354    2.4415720   -1.9023282 
C    -3.2824527    1.2668707   -2.2566843 
C    -4.0331540    0.1255447   -2.6306384 
C    -5.4309482    0.1520880   -2.6199495 
H    -7.2105811    1.3363535   -2.2350841 
H    -5.9145108    3.3878076   -1.6155785 
H    -3.4298481    3.3456916   -1.6388685 
H    -3.5222511   -0.7925491   -2.9371503 
H    -5.9912569   -0.7422347   -2.9111452 
Fe    0.9190145   -0.7663301    3.2562399 
C     1.9146584   -1.2891262    1.5981956 
C     0.9179554   -2.2848782    1.9257438 
H     0.0823252   -2.5736443    1.2892840 
C     1.1997565   -2.7975163    3.2324214 
H     0.6051628   -3.5380773    3.7700403 
C     2.3718463   -2.1378759    3.7266555 
H     2.8291996   -2.2886254    4.7061026 
C     2.8218249   -1.2133015    2.7288704 
C    -0.6836547    0.3623566    2.8231981 
C     0.4674191    1.1962382    3.0960041 
H     0.9086295    1.9093779    2.4009950 
C     0.9271067    0.9220329    4.4240148 
H     1.7934606    1.3773374    4.9066470 
C     0.0722020   -0.0776192    4.9918553 
H     0.1743155   -0.5231170    5.9829413 
C    -0.9191616   -0.4281168    4.0177188 
H     3.6908389   -0.5604339    2.8232187 
H    -1.6953614   -1.1808730    4.1575728 
C    -2.6582939   -1.2257510    1.4214823 
C    -3.8239937   -0.6228264    2.2409426 
C    -4.2398146    0.6950316    1.5728420 
C    -2.9654728    1.5087783    1.2005295 
H    -2.1160617   -1.9915273    2.0054753 
H    -4.6652739   -1.3310214    2.3279738 
H    -3.4810027   -0.4138153    3.2688718 
H    -4.8111040    0.4891662    0.6500010 
H    -4.9025171    1.2834275    2.2304408 
H    -3.0322901    1.7557056    0.1323233 
C     2.9891086    1.1937074    0.6302347 
C     4.4303186    0.8009424    0.2235273 
C     4.3811723    0.0055117   -1.0918978 
C     3.2720071   -1.0766537   -1.0240553 
H     2.8889675    1.1827858    1.7280826 
H     5.0763900    1.6929687    0.1349198 
H     4.8751419    0.1699838    1.0143837 
H     4.1532034    0.6832083   -1.9309899 
H     5.3592824   -0.4472134   -1.3213103 
H     2.8255646   -1.1846759   -2.0238279 
C     3.6839283   -2.5045536   -0.5660996 
H     3.8882289   -2.4949317    0.5208884 
C     2.4813173    2.5886234    0.1610221 
H     1.3744944    2.5608837    0.2457525 
C    -3.0663002   -1.8229290    0.0439730 
C    -2.8048191    2.8703160    1.9256066 
H    -3.7241775    3.4228601    1.6410066 
H    -3.2920568   -0.9743149   -0.6278368 
C     2.5352460   -3.4926877   -0.8467077 
H     2.7140603   -4.4613114   -0.3498271 
H     1.5603016   -3.1098266   -0.4999295 
H     2.4480441   -3.6713890   -1.9323851 
C     4.9593521   -2.9925549   -1.2809126 
H     5.1484107   -4.0506507   -1.0292293 
H     4.8470088   -2.9192545   -2.3785233 
H     5.8548139   -2.4204475   -0.9856145 
C     2.8157795    2.9372064   -1.2968716 
H     3.9024135    3.0672203   -1.4438578 
H     2.4731658    2.1528142   -1.9898508 
H     2.3271998    3.8837570   -1.5860032 
C     3.0019556    3.6849544    1.1091724 
H     2.6187528    4.6763294    0.8113648 
H     2.6917397    3.4997251    2.1534092 
H     4.1059438    3.7338914    1.0913325 
C    -1.6156281    3.6686438    1.3639608 
H    -1.5774894    4.6814973    1.8003962 
H    -0.6558774    3.1734454    1.5906055 
H    -1.6848502    3.7723882    0.2659726 
C    -2.7835824    2.8047820    3.4624915 
H    -3.6279969    2.2127869    3.8564563 
H    -1.8508484    2.3621801    3.8455682 
H    -2.8698899    3.8219841    3.8823158 
C    -4.3353435   -2.6903419    0.1249729 
H    -4.5414677   -3.1492701   -0.8577944 
H    -4.2158170   -3.5083163    0.8590430 
H    -5.2254889   -2.1026576    0.4045142 
C    -1.9195677   -2.6260059   -0.5918363 
H    -1.6770567   -3.5216363    0.0097435 
H    -2.1964661   -2.9701605   -1.6040345 
H    -0.9996808   -2.0116306   -0.6890873 
