112
Energy =
C     2.7072703    1.7289189   -1.4066642 
C     1.7965088    1.6354432   -2.4820268 
C     0.5433769    2.3289049   -2.4466042 
H     1.9775615    0.9089711   -3.2845308 
Pd    0.6678498    0.9016110   -0.7563165 
P    -1.5504493    0.6522685   -0.0718098 
P     1.4848306   -0.7092407    0.7425483 
H     2.5876469    2.5898145   -0.7307828 
H     0.5199725    3.2948329   -1.9206199 
C     6.5323795   -0.1906550   -1.0084535 
C     6.0752745    0.7087882   -0.0341656 
C     4.8246063    1.3198658   -0.1777712 
C     4.0010367    1.0396188   -1.2933606 
C     4.4711263    0.1206444   -2.2605879 
C     5.7244903   -0.4812565   -2.1205863 
H     7.5143291   -0.6637132   -0.9047827 
H     6.6976459    0.9430530    0.8356072 
H     4.4770813    2.0276703    0.5817867 
H     3.8592896   -0.1207849   -3.1345477 
H     6.0741995   -1.1844128   -2.8828611 
C    -2.4117882    1.8640985   -5.5515455 
C    -1.6827492    0.7488464   -5.1040621 
C    -0.7213160    0.8946798   -4.0987938 
C    -0.4688197    2.1579775   -3.5122437 
C    -1.2102822    3.2676960   -3.9698177 
C    -2.1671657    3.1230604   -4.9844006 
H    -3.1642443    1.7507020   -6.3385310 
H    -1.8696290   -0.2387083   -5.5390225 
H    -0.1764718    0.0153880   -3.7363814 
H    -1.0285630    4.2544607   -3.5297669 
H    -2.7255341    3.9985692   -5.3317043 
Fe   -0.3811282   -3.7187890    1.3175331 
C     0.1995951   -1.7791765    1.4948104 
C    -1.2035038   -1.8646592    1.0850257 
C    -1.8986228   -2.6046284    2.1058424 
C    -0.9712399   -2.9833317    3.1257012 
C     0.3181990   -2.4886818    2.7547049 
C     0.0424348   -4.6602299   -0.4532075 
C     1.0914366   -4.8872956    0.5014347 
C     0.5142683   -5.5281894    1.6454767 
C    -0.8908080   -5.6942377    1.4023229 
C    -1.1825289   -5.1587653    0.1034565 
C     2.3593680    0.0466557    2.1755186 
C     2.3068533    1.4504805    2.2936240 
C     2.9203138    2.1093362    3.3676492 
C     3.6076739    1.3699808    4.3400770 
C     3.6707876   -0.0282704    4.2352652 
C     3.0483052   -0.6873903    3.1670347 
C     2.6669250   -1.8235366   -0.1292122 
C     2.2673895   -2.2820806   -1.4029418 
C     3.0583372   -3.1869397   -2.1200527 
C     4.2760041   -3.6312004   -1.5819998 
C     4.7054506   -3.1388062   -0.3418958 
C     3.9118597   -2.2345880    0.3805814 
C    -1.9218880   -1.1914422   -0.0637700 
H    -2.9612993   -2.8558222    2.0785344 
H    -1.1947154   -3.5834443    4.0095443 
H     1.2308921   -2.6289493    3.3312008 
H     0.1624479   -4.1980265   -1.4321793 
H     2.1387207   -4.6056229    0.3813036 
H     1.0432271   -5.8112940    2.5574973 
H    -1.6149538   -6.1264471    2.0954618 
H    -2.1669820   -5.1306092   -0.3675188 
H     1.7751621    2.0277662    1.5296315 
H     3.1097133   -1.7776491    3.1124724 
H     1.3268459   -1.9225087   -1.8334388 
H     4.2848361   -1.8396510    1.3275202 
H     2.8596059    3.1999701    3.4422154 
H     4.2054828   -0.6117040    4.9919243 
H     2.7267802   -3.5415872   -3.1014865 
H     5.6723256   -3.4489481    0.0672888 
H     4.0918018    1.8796118    5.1794165 
H     4.8972521   -4.3409533   -2.1376227 
H    -3.0000343   -1.2838827    0.1522826 
C    -1.6636606   -1.7753567   -1.4632850 
H    -2.2109075   -1.2168239   -2.2424254 
H    -0.5907577   -1.7341877   -1.7086469 
H    -1.9857583   -2.8282149   -1.4935400 
H    -2.5431007    1.2865815   -2.1455215 
H    -0.9838566    0.4426570    2.1834708 
C    -4.0575198    3.6027608   -1.7692782 
C    -3.0234031    2.9374400   -0.8435154 
C    -2.9142105    1.4183380   -1.1101409 
C    -4.2981741    0.7351352   -1.0109633 
C    -5.3111262    1.4181066   -1.9505493 
C    -5.4294749    2.9213194   -1.6582606 
H    -3.7029793    3.5362093   -2.8134775 
H    -4.1324202    4.6770915   -1.5219551 
H    -3.3370954    3.0991069    0.2042886 
H    -2.0330263    3.4147182   -0.9615372 
H    -4.2254922   -0.3339724   -1.2759483 
H    -4.6708937    0.7856257    0.0288521 
H    -4.9819383    1.2730177   -2.9983873 
H    -6.2933592    0.9220629   -1.8521263 
H    -5.8352584    3.0659059   -0.6371805 
H    -6.1477275    3.3917014   -2.3531364 
C    -2.9376353    1.0993214    3.9224851 
C    -3.0712214    0.9122701    2.3981674 
C    -1.7035176    1.1510290    1.7244726 
C    -1.1778458    2.5701822    2.0372314 
C    -1.0310852    2.7470686    3.5589309 
C    -2.3659202    2.4826545    4.2778129 
H    -2.2697369    0.3086212    4.3176109 
H    -3.9216473    0.9543274    4.4034380 
H    -3.8117912    1.6314185    2.0001595 
H    -3.4488098   -0.1012611    2.1760643 
H    -0.2135476    2.7405939    1.5244394 
H    -1.8783865    3.3295978    1.6483200 
H    -0.2603625    2.0434903    3.9304276 
H    -0.6674178    3.7659373    3.7849673 
H    -3.0953608    3.2629334    3.9833588 
H    -2.2356284    2.5710177    5.3711494 
