98
Energy =
C    -0.5943481   -3.0353073    0.3543090 
C    -1.3620063   -2.3442564    1.3269023 
C    -2.4367107   -1.5099183    0.9341024 
H    -1.0672507   -2.3818686    2.3826394 
Pd   -0.4360130   -0.7698566    0.0848738 
P    -0.9424044    1.5411011    0.0647018 
P     1.6124907   -0.8160563   -1.0961566 
H    -1.0855049   -3.2194339   -0.6114845 
H    -2.8712577   -1.6956417   -0.0595718 
C     2.7045052   -5.6831591    1.1576116 
C     2.2981506   -4.7597592    2.1357479 
C     1.2246904   -3.8971863    1.8914197 
C     0.5275317   -3.9390995    0.6618005 
C     0.9332019   -4.8910007   -0.3027210 
C     2.0124835   -5.7498833   -0.0610159 
H     3.5490115   -6.3525333    1.3498374 
H     2.8271729   -4.7089572    3.0930646 
H     0.9391858   -3.1687239    2.6567084 
H     0.3885333   -4.9624037   -1.2504326 
H     2.3089814   -6.4780507   -0.8229597 
C    -5.1013354    0.5824686    3.5861577 
C    -3.8010107    0.2670432    4.0168699 
C    -2.9251118   -0.4207549    3.1709967 
C    -3.3258125   -0.8001049    1.8689996 
C    -4.6405574   -0.4853334    1.4540204 
C    -5.5205440    0.1954474    2.3046038 
H    -5.7847238    1.1213133    4.2501701 
H    -3.4699364    0.5594974    5.0187458 
H    -1.9144608   -0.6546359    3.5208700 
H    -4.9693890   -0.7756396    0.4498616 
H    -6.5353636    0.4264056    1.9650895 
Fe    1.5735468    2.4909982   -1.9586773 
C     2.4486777    0.7730541   -1.4163845 
C     2.6579224    1.7917289   -0.4073012 
H     2.3367450    1.7302156    0.6329209 
C     3.3461762    2.8934154   -1.0119942 
H     3.6193363    3.8255212   -0.5144012 
C     3.5784024    2.5730405   -2.3888853 
H     4.0589238    3.2181460   -3.1265239 
C     3.0378503    1.2702219   -2.6450365 
C    -0.3314295    2.5097164   -1.3517766 
C    -0.2391783    2.0059771   -2.7055846 
H    -0.5494310    1.0146823   -3.0309040 
C     0.3571975    3.0179850   -3.5252882 
H     0.5882351    2.9254667   -4.5879040 
C     0.6305906    4.1570428   -2.7001850 
H     1.1068281    5.0846780   -3.0225240 
C     0.2050676    3.8579839   -1.3643854 
H     3.0550079    0.7605154   -3.6093446 
H     0.2970450    4.5290581   -0.5091437 
C    -0.3599525    2.5280560    1.5647996 
C    -1.5990537    3.3557166    2.0125248 
C    -2.5775420    3.5135339    0.8354897 
C    -2.7201760    2.1221366    0.1873566 
H     0.4283788    3.1978964    1.1774696 
H    -2.1109885    2.8058662    2.8246939 
H    -1.2909002    4.3319702    2.4241470 
H    -3.5560036    3.8889946    1.1830772 
H    -2.1961242    4.2405032    0.0937317 
H    -3.1888885    1.4506786    0.9278501 
C     1.5047974   -1.6118209   -2.8183813 
C     2.7440526   -2.5519682   -2.9063558 
C     3.8051792   -2.1442804   -1.8762087 
C     3.0881467   -1.8589731   -0.5406100 
H     1.6019441   -0.7672918   -3.5233467 
H     2.4095757   -3.5808038   -2.6784926 
H     3.1465643   -2.5632089   -3.9342126 
H     4.5618365   -2.9384289   -1.7429854 
H     4.3450386   -1.2356266   -2.2034510 
H     2.6583227   -2.7979923   -0.1484278 
C     3.9930728   -1.2143318    0.5206154 
H     4.8684221   -1.8786180    0.6516634 
H     4.3922858   -0.2632893    0.1220132 
C     3.3274976   -0.9815285    1.8809606 
H     3.0868121   -1.9373174    2.3729920 
H     3.9865205   -0.4066222    2.5534104 
H     2.3796964   -0.4220337    1.7733742 
C     0.2089542   -2.3770120   -3.1518028 
H     0.3847747   -2.8889581   -4.1174442 
H     0.0792867   -3.1855209   -2.4116192 
C    -1.0769028   -1.5547614   -3.2519394 
H    -1.9410268   -2.2045085   -3.4731677 
H    -1.2899459   -1.0266661   -2.2985967 
H    -1.0139702   -0.7996403   -4.0553461 
C     0.2480837    1.6566945    2.6786898 
H     1.0343065    1.0091662    2.2490256 
H    -0.5308952    0.9717197    3.0591625 
C     0.8339133    2.4793627    3.8333519 
H     1.2841341    1.8211911    4.5962831 
H     1.6213753    3.1650295    3.4706774 
H     0.0602711    3.0898163    4.3309667 
C    -3.5004585    2.0340183   -1.1334938 
H    -3.4653347    0.9868822   -1.4942302 
H    -2.9927877    2.6445710   -1.9035464 
C    -4.9638434    2.4813557   -1.0020452 
H    -5.0358250    3.5516138   -0.7420682 
H    -5.5045643    2.3327164   -1.9523084 
H    -5.4877718    1.9085543   -0.2166848 
