112
Energy =
C     2.2301723   -0.2210965   -2.3094462 
C     1.7050810    1.0902766   -2.5067855 
C     1.7526178    2.0617977   -1.4838429 
H     1.1682976    1.3054494   -3.4401559 
Pd    0.5396067    0.1770871   -0.8695007 
P    -1.1368552    1.0498160    0.5008070 
P     0.3431310   -2.0226940   -0.1099010 
H     3.0660132   -0.3261787   -1.6018480 
H     2.4778340    1.8874701   -0.6745626 
C     2.1587952   -3.0353399   -5.5607885 
C     0.9836203   -2.3549723   -5.2007987 
C     0.9914955   -1.4584738   -4.1280872 
C     2.1747876   -1.2272444   -3.3907777 
C     3.3418005   -1.9393871   -3.7438123 
C     3.3364695   -2.8259306   -4.8281821 
H     2.1518731   -3.7351254   -6.4027123 
H     0.0553627   -2.5344119   -5.7527342 
H     0.0667310   -0.9499187   -3.8314545 
H     4.2646407   -1.7760448   -3.1757213 
H     4.2544539   -3.3572169   -5.1005547 
C     0.5029734    6.1716347   -1.7144378 
C     1.4492198    5.7572079   -0.7655275 
C     1.8426214    4.4149552   -0.7090418 
C     1.3039367    3.4576322   -1.5999115 
C     0.3711000    3.8969538   -2.5683604 
C    -0.0285785    5.2358140   -2.6188287 
H     0.1880182    7.2191333   -1.7580841 
H     1.8811601    6.4808608   -0.0666421 
H     2.5813107    4.0944020    0.0338339 
H    -0.0517147    3.1850816   -3.2817052 
H    -0.7577529    5.5548419   -3.3708053 
Fe   -0.8953356   -0.7200552    3.6913353 
C    -1.6281738    0.0053195    1.9116138 
C    -1.6448965   -1.4571695    1.9468640 
C    -2.4628138   -1.8417970    3.0757305 
C    -2.9279332   -0.6652124    3.7405858 
C    -2.4097870    0.4676596    3.0426148 
C     0.1971521    0.3836143    5.0258538 
C    -0.5221948   -0.6638183    5.6921786 
C    -0.0970296   -1.9175941    5.1355173 
C     0.8854707   -1.6468307    4.1271836 
C     1.0639141   -0.2255683    4.0568004 
C    -1.1777213   -2.4686038    0.9182355 
H    -2.6722631   -2.8625509    3.3949432 
H    -3.5363702   -0.6387481    4.6462710 
H    -2.5749860    1.5081802    3.3200597 
H     0.0983186    1.4522935    5.2247528 
H    -1.2758854   -0.5303169    6.4703270 
H    -0.4725829   -2.9028232    5.4180884 
H     1.4069744   -2.3906498    3.5263240 
H     1.7427898    0.2990659    3.3862332 
H    -3.3990330    1.7781209    0.4050471 
C    -2.9438657   -0.7599079   -1.9492400 
C    -3.5193836   -0.0584896   -0.7105050 
C    -2.8027289    1.2666141   -0.3723692 
C    -2.7051686    2.1774000   -1.6188903 
C    -2.1580299    1.4477470   -2.8566238 
C    -2.9455505    0.1689833   -3.1706061 
H    -3.5139191   -1.6833990   -2.1571872 
H    -1.8940972   -1.0609752   -1.7509952 
H    -3.5262614   -0.7277632    0.1677273 
H    -4.5799869    0.1916352   -0.9084382 
H    -3.7280213    2.5404552   -1.8392856 
H    -2.0961971    3.0747806   -1.4089132 
H    -2.1587140    2.1322118   -3.7236754 
H    -1.1002335    1.1664616   -2.6652340 
H    -2.5109056   -0.3452215   -4.0469980 
H    -3.9882037    0.4284370   -3.4390775 
H    -0.3062953    3.2583453    0.2570444 
C     0.7666595    4.0421928    2.7818795 
C     0.3388476    2.6705462    2.2314765 
C    -0.7519669    2.7726261    1.1447294 
C    -1.9425486    3.6547440    1.5856154 
C    -1.4475381    5.0270020    2.0808625 
C    -0.4425536    4.8747918    3.2323332 
H     1.3103696    4.6019020    1.9995174 
H     1.4741964    3.8937973    3.6180757 
H    -0.0495619    2.0457132    3.0529378 
H     1.2134308    2.1316520    1.8185210 
H    -2.6444917    3.7996056    0.7469387 
H    -2.5137141    3.1712033    2.3979249 
H    -0.9661306    5.5634622    1.2400253 
H    -2.3141636    5.6357755    2.3951916 
H    -0.9393508    4.3771625    4.0893798 
H    -0.1121894    5.8659486    3.5907738 
H    -1.9546388   -2.4763832    0.1282639 
C    -1.0816871   -3.8914574    1.5003717 
H    -2.0792843   -4.2407151    1.8139224 
H    -0.7092762   -4.6067874    0.7499989 
H    -0.4170899   -3.9062351    2.3796544 
C     0.3294549   -5.3453854   -3.3862637 
C    -0.8796852   -4.7763175   -2.9620988 
C    -0.8843651   -3.7876261   -1.9703648 
C     0.3231916   -3.3549429   -1.3793483 
C     1.5358983   -3.9198864   -1.8295911 
C     1.5349192   -4.9119435   -2.8179446 
H     0.3324106   -6.1202700   -4.1594456 
H    -1.8277900   -5.1044201   -3.4005867 
H    -1.8429201   -3.3658633   -1.6580509 
H     2.4877636   -3.5880890   -1.4066801 
H     2.4858040   -5.3381863   -3.1512220 
C     4.1718915   -2.7978552    2.4311163 
C     3.3676798   -3.8848702    2.0524292 
C     2.2137288   -3.6784187    1.2841912 
C     1.8455673   -2.3718580    0.8927155 
C     2.6661491   -1.2897461    1.2699371 
C     3.8217786   -1.4990566    2.0344487 
H     5.0726532   -2.9651170    3.0303436 
H     3.6426343   -4.9014129    2.3519034 
H     1.6134731   -4.5379881    0.9749633 
H     2.3775636   -0.2757403    0.9646566 
H     4.4466068   -0.6477627    2.3235750 
