98
Energy =
C     1.6436182   -2.3875223   -0.5474388 
C     2.1612124   -1.4403567   -1.4605571 
C     2.9366728   -0.3403206   -1.0234422 
H     1.9210120   -1.5338135   -2.5266580 
Pd    0.7701825   -0.2584889   -0.1849177 
P     0.3105027    2.0861519    0.0725161 
P    -1.1799013   -1.2110339    0.7971350 
H     2.1007127   -2.4167882    0.4520357 
H     3.3867328   -0.4276541   -0.0233806 
C    -0.2872115   -6.0798931   -1.6136154 
C     0.2654538   -5.8979020   -0.3380300 
C     0.8745657   -4.6833639   -0.0035545 
C     0.9467710   -3.6237273   -0.9368094 
C     0.4018181   -3.8318386   -2.2265043 
C    -0.2111501   -5.0421793   -2.5582509 
H    -0.7678926   -7.0277145   -1.8767262 
H     0.2219900   -6.7031413    0.4023733 
H     1.3069235   -4.5483782    0.9934456 
H     0.4548105   -3.0412454   -2.9811918 
H    -0.6327705   -5.1799338   -3.5590892 
C     5.0749516    2.3192296   -3.6418949 
C     3.9083823    1.6829195   -4.1006119 
C     3.2004044    0.8171078   -3.2619392 
C     3.6383700    0.5745913   -1.9382893 
C     4.8215182    1.2113491   -1.4962775 
C     5.5330076    2.0731656   -2.3392374 
H     5.6255510    2.9982775   -4.3007169 
H     3.5496735    1.8659642   -5.1187787 
H     2.2861874    0.3424450   -3.6316041 
H     5.1848834    1.0240352   -0.4799028 
H     6.4475122    2.5545734   -1.9780287 
Fe   -2.0726806    1.4981113    2.6658962 
C    -0.6066232    2.4213290    1.6187754 
C    -0.1253257    1.9208974    2.8941783 
H     0.6631340    1.1772578    3.0267072 
C    -0.8803706    2.5433300    3.9429972 
H    -0.7730585    2.3481895    5.0114818 
C    -1.8394623    3.4198013    3.3377522 
H    -2.5910779    4.0109006    3.8642546 
C    -1.6774057    3.3506213    1.9159746 
C    -2.3411090   -0.3490518    1.9216706 
C    -3.4454971    0.5062290    1.5406003 
H    -3.7729478    0.7125812    0.5229882 
C    -4.0617351    0.9950572    2.7371642 
H    -4.9089258    1.6816614    2.7819996 
C    -3.3600107    0.4463233    3.8601946 
H    -3.5711591    0.6490600    4.9116628 
C    -2.3028235   -0.3857571    3.3681581 
C    -2.3367750   -1.8807002   -0.4624329 
C    -1.9888197   -1.7881768   -1.8230150 
H    -1.0293942   -1.3339095   -2.0963902 
C    -2.8645493   -2.2490732   -2.8147284 
H    -2.5834233   -2.1704236   -3.8700314 
C    -4.0985535   -2.8071875   -2.4526233 
H    -4.7846184   -3.1693007   -3.2253099 
C    -4.4636019   -2.8855252   -1.0986823 
H    -5.4350413   -3.3036721   -0.8154643 
C    -3.5943908   -2.4156123   -0.1058225 
H    -3.9028985   -2.4447011    0.9446031 
C    -0.6620569   -2.5780074    1.9222967 
C     0.4623365   -2.3367501    2.7398111 
H     1.0150846   -1.3941689    2.6367306 
C     0.8782057   -3.2939044    3.6758660 
H     1.7519122   -3.0974634    4.3058988 
C     0.1750482   -4.5032233    3.7996750 
H     0.4997939   -5.2540098    4.5273265 
C    -0.9390385   -4.7495304    2.9838054 
H    -1.4809999   -5.6972907    3.0661745 
C    -1.3582666   -3.7935842    2.0465744 
H    -2.2097923   -4.0129654    1.3970867 
H    -2.2749515    3.9025728    1.1906177 
H    -1.5833328   -0.9380785    3.9739593 
C     1.7796152    3.3234502    0.3210405 
C    -0.7765755    2.6322425   -1.4089313 
C     2.8041006    2.6044491    1.2259756 
H     3.6878854    3.2552523    1.3562705 
H     2.3926149    2.4004624    2.2278928 
H     3.1406957    1.6549427    0.7840662 
C     2.4424881    3.6790893   -1.0250000 
H     3.3906615    4.2084990   -0.8223373 
H     2.6854095    2.7906338   -1.6221549 
H     1.8160798    4.3511768   -1.6315220 
C     1.3253952    4.6197521    1.0289428 
H     2.1992300    5.2933814    1.1028144 
H     0.5401562    5.1552231    0.4735506 
H     0.9608901    4.4290347    2.0506882 
C    -1.0003940    4.1545321   -1.5288243 
H    -1.6884095    4.3388830   -2.3744464 
H    -1.4633111    4.5852217   -0.6272148 
H    -0.0709712    4.7051244   -1.7369444 
C    -0.1048564    2.0942134   -2.6936352 
H    -0.7487527    2.3287516   -3.5609647 
H     0.8855081    2.5366833   -2.8772033 
H     0.0135989    0.9961698   -2.6408956 
C    -2.1450078    1.9396073   -1.2563860 
H    -2.7437843    2.1225356   -2.1673482 
H    -2.0364082    0.8483025   -1.1433941 
H    -2.7051504    2.3260156   -0.3924788 
