124
Energy =
C     1.4254095    2.7148481   -1.2874274 
C     0.4104841    3.2726673   -0.4632187 
C     0.4848241    3.2504379    0.9451963 
H    -0.5054289    3.6435146   -0.9380620 
Pd    0.4851069    1.1080510    0.0104296 
P    -0.7084673   -0.1157713    1.6442765 
P     1.0865576   -0.7572579   -1.3038928 
H     2.4338067    2.6369777   -0.8558812 
H     1.4776242    3.0902565    1.3886228 
C     1.4083375    2.9576955   -5.5945370 
C     2.5981680    2.7120478   -4.8932094 
C     2.5875989    2.6405788   -3.4944512 
C     1.3866285    2.7888614   -2.7622508 
C     0.1967396    3.0414348   -3.4858927 
C     0.2106689    3.1341834   -4.8815864 
H     1.4137674    3.0210850   -6.6872461 
H     3.5412576    2.5886539   -5.4356887 
H     3.5271221    2.4822243   -2.9541647 
H    -0.7551426    3.1548924   -2.9572709 
H    -0.7212987    3.3353028   -5.4197572 
C    -2.3189972    5.0939098    3.6503121 
C    -1.0989262    4.5815107    4.1166728 
C    -0.1980818    3.9912476    3.2230586 
C    -0.5003174    3.8758052    1.8451216 
C    -1.7276159    4.4128768    1.3898487 
C    -2.6197591    5.0192418    2.2805188 
H    -3.0228146    5.5643438    4.3442574 
H    -0.8414607    4.6541815    5.1783921 
H     0.7630883    3.6215233    3.5906504 
H    -1.9929054    4.3627102    0.3293914 
H    -3.5578199    5.4392603    1.9033013 
Fe   -1.5775581   -3.6558385    1.3399015 
C    -1.3441169   -1.6664672    0.8966264 
C    -0.5635050   -2.5053128   -0.0052340 
C    -1.4714631   -3.4017171   -0.6740505 
C    -2.7973122   -3.1433928   -0.2014293 
C    -2.7263392   -2.0952579    0.7713034 
C    -1.1824797   -4.0693119    3.3144736 
C    -2.5253351   -4.4378527    2.9747347 
C    -2.4626515   -5.3977313    1.9086891 
C    -1.0798874   -5.6180973    1.5883111 
C    -0.2871046   -4.7956951    2.4566596 
C     0.9046142   -2.3622452   -0.3126063 
H    -1.1957527   -4.1701159   -1.3974712 
H    -3.7008756   -3.6800170   -0.4957910 
H    -3.5789630   -1.6977747    1.3188463 
H    -0.8948112   -3.3679859    4.0979728 
H    -3.4345517   -4.0500926    3.4375689 
H    -3.3166594   -5.8616054    1.4120203 
H    -0.7021841   -6.2871145    0.8127550 
H     0.8030991   -4.7455007    2.4713663 
H     1.4499489   -2.1431921    0.6175669 
C     1.4932364   -3.6369883   -0.9392983 
H     1.1257560   -4.5087346   -0.3703552 
H     1.1960119   -3.7687573   -1.9935074 
H     2.5911626   -3.6372336   -0.8901645 
H    -1.8087846    1.8170802    2.4947693 
C    -4.3324656    1.0757727    3.5638120 
C    -3.0575863    0.2552396    3.2933192 
C    -2.2332060    0.8611612    2.1322896 
C    -3.0683273    1.1915798    0.8678052 
C    -4.3675275    1.9466402    1.2001272 
C    -5.1790763    1.2348536    2.2924140 
H    -4.0445611    2.0784844    3.9362058 
H    -4.9150020    0.5911275    4.3677787 
H    -3.3359421   -0.7915734    3.0747393 
H    -2.4421717    0.2263958    4.2094185 
H    -2.4409588    1.7857157    0.1763310 
H    -3.3227587    0.2653621    0.3241719 
H    -4.1190692    2.9631289    1.5531228 
H    -4.9653342    2.0634892    0.2781309 
H    -5.5014749    0.2364444    1.9332966 
H    -6.1006576    1.8022533    2.5130949 
H    -0.8059137   -1.1300233    3.7699845 
C     1.8697703    1.1358858    3.7676653 
C     0.5013522    0.5613987    4.1730683 
C     0.0541897   -0.6273440    3.2926007 
C     1.1853908   -1.6655551    3.1524417 
C     2.5255567   -1.0525070    2.7272829 
C     2.9580623    0.0558277    3.6959842 
H     2.1596813    1.9345122    4.4740402 
H     1.7818650    1.6028405    2.7691304 
H    -0.2622815    1.3595223    4.1828134 
H     0.5662374    0.1842838    5.2124206 
H     1.3128459   -2.1508063    4.1399826 
H     0.8609906   -2.4606780    2.4610339 
H     3.2947146   -1.8425283    2.6554852 
H     2.4221104   -0.6117618    1.7156546 
H     3.9168934    0.5005953    3.3743302 
H     3.1279637   -0.3752320    4.7019705 
H    -0.1718650   -2.1198083   -2.8578333 
C    -0.4974551   -0.7665081   -5.2712847 
C     0.5067332   -0.5038668   -4.1328027 
C    -0.0421740   -1.0214183   -2.7853188 
C    -1.4240995   -0.3869635   -2.4894825 
C    -2.4206805   -0.6636847   -3.6262919 
C    -1.8800337   -0.1648792   -4.9747779 
H    -0.5983169   -1.8599130   -5.4216202 
H    -0.0908571   -0.3537556   -6.2121849 
H     0.6999856    0.5785003   -4.0584899 
H     1.4671026   -0.9826115   -4.3800482 
H    -1.8243167   -0.7594691   -1.5328854 
H    -1.2835763    0.7059074   -2.3706193 
H    -2.6115556   -1.7539223   -3.6799073 
H    -3.3896071   -0.1858474   -3.3925422 
H    -1.7950198    0.9384295   -4.9438515 
H    -2.5858727   -0.4077339   -5.7891579 
H     2.7478851    0.2986724   -2.5584417 
C     4.8282894   -1.2148137   -3.3331224 
C     3.4941808   -1.7128871   -2.7448705 
C     2.8517013   -0.5875270   -1.9011936 
C     3.8021776   -0.2074170   -0.7421656 
C     5.1717235    0.2475891   -1.2807554 
C     5.7993756   -0.8009252   -2.2144860 
H     4.6335572   -0.3529446   -4.0018063 
H     5.2778597   -2.0067563   -3.9584046 
H     3.7002743   -2.5866402   -2.1041803 
H     2.8200418   -2.0588449   -3.5455677 
H     3.3518975    0.5869046   -0.1174292 
H     3.9391165   -1.0863483   -0.0828571 
H     5.0402652    1.1979954   -1.8344408 
H     5.8492290    0.4684792   -0.4364218 
H     6.0683474   -1.6981985   -1.6227269 
H     6.7407280   -0.4136417   -2.6431490 
