94
Energy =
C    -2.5464846    2.2806001    1.0455966 
C    -1.6842913    1.4133471    1.6653303 
C    -0.2411449    1.5925270    1.6743207 
H    -2.0922496    0.5497302    2.2034237 
Pd    0.4277296    0.2900243    0.1149007 
P     2.6708917   -0.2740832    0.3947488 
P    -1.3568035   -0.0943871   -1.2962093 
H    -2.1195929    3.1793757    0.5811282 
H     0.0875046    2.5571361    1.2524563 
C    -6.8205931    2.0141134    0.7907189 
C    -6.0755757    0.8824506    1.1706004 
C    -4.6837525    0.9491684    1.2537446 
C    -3.9954650    2.1531115    0.9539524 
C    -4.7601850    3.2730522    0.5392871 
C    -6.1560492    3.2089015    0.4723449 
H    -7.9130907    1.9608855    0.7381763 
H    -6.5878669   -0.0574755    1.4015584 
H    -4.1199034    0.0529233    1.5288499 
H    -4.2441493    4.2057265    0.2872591 
H    -6.7283756    4.0910979    0.1672738 
C     2.1739903    0.4113935    5.0458572 
C     2.4644932    1.5807155    4.3264947 
C     1.6851470    1.9407516    3.2237435 
C     0.5763796    1.1549474    2.8305227 
C     0.2899385   -0.0185921    3.5706657 
C     1.0862456   -0.3893019    4.6575738 
H     2.7896580    0.1234119    5.9035053 
H     3.3062583    2.2144356    4.6228731 
H     1.9263445    2.8470282    2.6571260 
H    -0.5556119   -0.6519770    3.2816067 
H     0.8575968   -1.3057671    5.2110507 
Fe    1.3031116   -1.9372817   -2.2922322 
C     2.4622023   -1.7995222   -0.5897965 
C     3.2403157   -2.2546481   -1.7125500 
H     4.1241048   -1.7560432   -2.1111714 
C     2.6483158   -3.4680369   -2.1942099 
H     2.9995115   -4.0528942   -3.0464482 
C     1.4985333   -3.7662402   -1.3876107 
H     0.8233662   -4.6135954   -1.5184576 
C     1.3687919   -2.7375535   -0.4035550 
C    -0.3569254   -0.7709055   -2.6627677 
C    -0.4651467   -2.0477221   -3.3181429 
H    -1.2593729   -2.7772811   -3.1566741 
C     0.6504990   -2.1771643   -4.2096301 
H     0.8619187   -3.0403107   -4.8435982 
C     1.4573947   -0.9939519   -4.1050411 
H     2.3875012   -0.8013976   -4.6424291 
C     0.8530235   -0.1283883   -3.1421719 
H     0.5905451   -2.6703186    0.3593423 
H     1.2310777    0.8450069   -2.8230567 
C     3.6300811   -0.8536083    1.8138875 
C     3.6339153   -2.0519107    2.4991867 
C     4.5396211   -1.8837069    3.5916671 
C     5.0314484   -0.5978116    3.5104094 
H     3.0637549   -2.9436898    2.2389031 
H     4.8111509   -2.6256548    4.3427458 
O     4.4755857    0.0368822    2.4304228 
C     6.0202886    0.1773429    4.3096873 
H     6.8740391    0.4936664    3.6837758 
H     5.5639786    1.0891655    4.7345657 
H     6.4013225   -0.4422652    5.1354919 
C     3.8063928    0.7716688   -0.5225674 
C     3.6302096    2.0350049   -1.0494418 
C     4.8638974    2.3899509   -1.6783363 
C     5.7224260    1.3259148   -1.4960639 
H     2.7190245    2.6304749   -0.9776482 
H     5.0994249    3.3198852   -2.1958604 
O     5.0866976    0.3361455   -0.7946505 
C     7.1349366    1.0648207   -1.8909105 
H     7.7638751    0.8796657   -1.0018548 
H     7.2080480    0.1747841   -2.5417089 
H     7.5388497    1.9318908   -2.4348136 
C    -2.4228267   -1.4349972   -0.7528338 
C    -2.4873187   -2.0818871    0.4652836 
C    -3.5158129   -3.0682689    0.3503835 
C    -4.0162994   -2.9696650   -0.9314884 
H    -1.8649164   -1.8627450    1.3334412 
H    -3.8518435   -3.7666404    1.1168515 
C    -2.4674756    1.1583572   -1.9672433 
C    -2.2279455    2.4684412   -2.3394707 
C    -3.4822312    3.0047904   -2.7582768 
C    -4.4159461    1.9980283   -2.6073405 
H    -1.2636168    2.9773154   -2.3089389 
H    -3.6818756    4.0119542   -3.1238526 
O    -3.3518394   -1.9844674   -1.6098815 
O    -3.8026718    0.8742664   -2.1281570 
C    -5.0888598   -3.6867754   -1.6761130 
H    -5.8701598   -2.9815432   -2.0117762 
H    -4.6834883   -4.1867636   -2.5741103 
H    -5.5522165   -4.4467400   -1.0291650 
C    -5.8788561    1.9019556   -2.8589904 
H    -6.0991225    1.1234849   -3.6114269 
H    -6.4128588    1.6397173   -1.9285813 
H    -6.2605475    2.8665440   -3.2254797 
