110
Energy =
C     2.6684559    1.0844089    0.7240169 
C     2.6991434    1.9678957   -0.4107336 
C     1.8070383    3.0445232   -0.5207042 
H     3.3872136    1.7519141   -1.2377929 
Pd    0.7646487    0.8423444   -0.3597224 
P    -0.9401146    0.5233462   -1.9869086 
P    -0.1677676   -0.4674932    1.3088922 
H     2.3756773    1.5203181    1.6893573 
H     1.2170068    3.2905247    0.3759178 
C     5.0753443   -2.4861939    0.9762358 
C     4.7372897   -1.9559934   -0.2799382 
C     3.9615711   -0.7952599   -0.3711639 
C     3.5185989   -0.1219595    0.7943292 
C     3.8894073   -0.6573397    2.0496878 
C     4.6473426   -1.8304990    2.1406294 
H     5.6603997   -3.4079179    1.0501446 
H     5.0706609   -2.4586274   -1.1940998 
H     3.6774801   -0.4186071   -1.3606802 
H     3.5879474   -0.1334304    2.9619765 
H     4.9080890   -2.2382586    3.1223936 
C     1.6010782    6.0886661   -3.5364042 
C     0.7960064    6.1561638   -2.3888305 
C     0.8773672    5.1512908   -1.4198724 
C     1.7642364    4.0567595   -1.5751780 
C     2.5834813    4.0151450   -2.7303486 
C     2.4969272    5.0171263   -3.6998692 
H     1.5407547    6.8732530   -4.2974963 
H     0.1060434    6.9944614   -2.2493963 
H     0.2449721    5.2028451   -0.5261319 
H     3.2971502    3.1976836   -2.8703850 
H     3.1374586    4.9706137   -4.5864747 
Fe   -3.0975020   -2.4460384    1.0693679 
C    -1.9396538   -0.7834501    1.0718167 
C    -2.5673787   -0.9698164   -0.2283211 
C    -3.9921290   -0.9738309   -0.0134353 
C    -4.2479388   -0.7970397    1.3872355 
C    -2.9905345   -0.6906520    2.0653313 
C    -2.9210195   -4.2732936    0.1393280 
C    -1.9570760   -4.1533103    1.1913791 
C    -2.6643942   -3.9165638    2.4185724 
C    -4.0689165   -3.8941931    2.1213300 
C    -4.2274781   -4.1095897    0.7107330 
C    -0.1057831    0.5970860    2.8058184 
C     0.8688137    0.4432908    3.8122681 
C     0.9707934    1.3778000    4.8515284 
C     0.1052289    2.4797992    4.8927531 
C    -0.8725015    2.6423568    3.8959951 
C    -0.9739262    1.7119797    2.8588447 
C     0.6613171   -2.0458785    1.7132372 
C     1.3958880   -2.6622406    0.6825259 
C     2.0615917   -3.8692874    0.9139775 
C     2.0135249   -4.4542005    2.1887686 
C     1.2551137   -3.8654782    3.2140396 
C     0.5705809   -2.6683665    2.9742493 
C    -1.8402788   -1.1086216   -1.5436187 
H    -4.7549946   -1.1255664   -0.7783273 
H    -5.2312986   -0.7885496    1.8606369 
H    -2.8425689   -0.5527629    3.1374939 
H    -2.6970186   -4.4629858   -0.9117481 
H    -0.8755824   -4.2276973    1.0769853 
H    -2.2163905   -3.7777755    3.4033735 
H    -4.8741554   -3.7187406    2.8371176 
H    -5.1740295   -4.1286546    0.1673672 
H     1.5550288   -0.4066506    3.7903071 
H    -1.7356948    1.8490491    2.0858922 
H     1.4630452   -2.1793384   -0.2972373 
H    -0.0315050   -2.2210105    3.7711852 
H    -0.9694790   -1.7635359   -1.3553091 
C    -2.7146873   -1.7839244   -2.6163665 
H    -3.1811998   -2.6760240   -2.1667248 
H    -3.5200718   -1.1341636   -2.9855198 
H    -2.1190532   -2.1158227   -3.4791220 
C     0.2516257    3.5291837    5.9740322 
F    -0.9493939    4.0335793    6.3390905 
F     0.8496872    3.0324368    7.0790567 
F     1.0060266    4.5682245    5.5364490 
H     1.7221091    1.2474204    5.6356335 
H    -1.5557342    3.4958030    3.9384000 
H     2.6411276   -4.3429744    0.1175995 
H     1.2034937   -4.3466379    4.1948251 
C     2.8615425   -5.6748940    2.4700410 
F     4.1415375   -5.3049354    2.7502995 
F     2.4062905   -6.3793222    3.5272347 
F     2.9135147   -6.5038809    1.4033152 
C    -0.0517145    0.1529222   -3.6525556 
C    -2.2280609    1.9293454   -2.1307064 
C    -0.9724287    0.1399572   -4.8907234 
H    -0.3725750   -0.1448706   -5.7749647 
H    -1.7999164   -0.5792896   -4.8060838 
H    -1.3986927    1.1356242   -5.0927570 
C    -3.5623870    1.5097948   -2.7789108 
H    -4.2118237    2.4013165   -2.8564710 
H    -3.4294614    1.1070278   -3.7956163 
H    -4.0970403    0.7683588   -2.1648918 
C     1.0576780    1.2095766   -3.8545647 
H     1.6228243    0.9645979   -4.7726247 
H     0.6690481    2.2316988   -3.9629749 
H     1.7636433    1.2014094   -3.0063784 
C     0.6522454   -1.2160118   -3.4799815 
H     1.3230693   -1.3828996   -4.3421132 
H     1.2737410   -1.2296187   -2.5642941 
H    -0.0496358   -2.0640483   -3.4409132 
C    -2.4903021    2.4089808   -0.6816452 
H    -3.2113439    3.2468229   -0.7058455 
H    -2.9183043    1.6117217   -0.0517178 
H    -1.5581621    2.7702399   -0.2117036 
C    -1.6084111    3.0994874   -2.9218061 
H    -2.2711130    3.9792663   -2.8295939 
H    -0.6218840    3.3859709   -2.5256477 
H    -1.5084140    2.8746055   -3.9956705 
