124
Energy =
C     0.0750385   -2.3787501   -1.8651746 
C     0.6819036   -1.3207151   -2.5873147 
C     1.9178862   -0.7576914   -2.1792743 
H     0.1475520   -0.8591507   -3.4271314 
Pd    0.3059000   -0.5049727   -0.5726386 
P     1.2180015    1.3649630    0.5520721 
P    -1.4186118   -0.8228390    0.9813354 
H     0.7399506   -2.9706871   -1.2194550 
H     2.5707229   -1.3825061   -1.5516179 
C    -3.4417884   -4.5566071   -3.0420937 
C    -2.6660729   -4.9770529   -1.9526839 
C    -1.5415350   -4.2409960   -1.5648402 
C    -1.1643930   -3.0664973   -2.2565879 
C    -1.9698744   -2.6450406   -3.3423433 
C    -3.0895722   -3.3855559   -3.7321552 
H    -4.3256216   -5.1277659   -3.3417835 
H    -2.9406591   -5.8807431   -1.4001196 
H    -0.9383480   -4.5818992   -0.7162275 
H    -1.7059996   -1.7466759   -3.9095694 
H    -3.6937664   -3.0483754   -4.5804964 
C     4.0067565    2.1331128   -4.5760057 
C     4.7101840    1.1604179   -3.8510502 
C     4.0204802    0.2608705   -3.0294983 
C     2.6096545    0.2888719   -2.9505472 
C     1.9153937    1.2786493   -3.6829531 
C     2.6069962    2.1959450   -4.4786839 
H     4.5460413    2.8442806   -5.2100506 
H     5.8014024    1.1062477   -3.9206646 
H     4.5747568   -0.4954554   -2.4622338 
H     0.8240508    1.3324230   -3.6259770 
H     2.0526461    2.9630339   -5.0288563 
Fe   -2.6315073    2.0542823   -0.3992791 
C    -2.1962667    0.8100028    1.1584184 
C    -1.4692714    2.0685200    1.2820697 
C    -2.4583980    3.1160256    1.3290930 
C    -3.7624233    2.5341400    1.2300470 
C    -3.6093676    1.1154603    1.1240251 
C    -3.6391851    3.0329983   -1.8748487 
C    -2.2503720    3.3953976   -1.8906247 
C    -1.4827197    2.1984145   -2.0939753 
C    -2.3977779    1.1012869   -2.2081336 
C    -3.7309012    1.6140461   -2.0695660 
C    -0.0184857    2.3194177    1.6335942 
H    -2.2341136    4.1812959    1.4179343 
H    -4.7089310    3.0772048    1.2064820 
H    -4.4131117    0.3853297    1.0229516 
H    -4.4779909    3.7142780   -1.7214754 
H    -1.8547561    4.4044591   -1.7647235 
H    -0.3968051    2.1301744   -2.1515719 
H    -2.1186292    0.0573235   -2.3606355 
H    -4.6544582    1.0325312   -2.0883052 
H     0.1802025    3.3815217    1.4112259 
C     0.2168714    2.0999670    3.1481141 
H    -0.6451130    2.5041901    3.7062375 
H     0.3219000    1.0350963    3.3989066 
H     1.1222757    2.6204220    3.4910851 
C     4.5190977   -0.3353085    3.3999571 
C     3.6732310   -1.1584223    2.6336450 
C     2.7277277   -0.5867577    1.7813458 
C     2.5767619    0.8111493    1.6630397 
C     3.4318877    1.6637502    2.4164751 
C     4.3783140    1.0581786    3.2657061 
H     3.7391840   -2.2487352    2.7112528 
H     2.0692239   -1.2364889    1.1930417 
H     5.0317327    1.7110278    3.8578628 
C     3.1611630    4.7151181   -1.9916203 
C     1.7849759    4.7882419   -1.7175022 
C     1.2039991    3.7688459   -0.9400206 
C     1.9706150    2.6813168   -0.4838264 
C     3.3420355    2.6166276   -0.8030708 
C     3.9582520    3.6499160   -1.5269810 
H     3.6323449    5.5179430   -2.5713935 
H     0.1430950    3.8352644   -0.6797727 
H     3.9470715    1.7793662   -0.4400981 
C     5.5608636   -0.9303466    4.3184926 
H     5.8417398   -0.2307281    5.1229261 
H     5.2005209   -1.8668719    4.7770421 
H     6.4805898   -1.1742363    3.7536521 
C     3.4111127    3.1782937    2.3547011 
H     4.2436960    3.5472894    1.7283000 
H     2.4876976    3.5849147    1.9174088 
H     3.5410278    3.6069999    3.3631466 
C     0.9347182    5.9200216   -2.2513556 
H     0.3826547    5.5982946   -3.1550369 
H     0.1862632    6.2469592   -1.5085317 
H     1.5471292    6.7932099   -2.5295772 
C     5.4537876    3.6554560   -1.7483771 
H     5.7092792    3.9769247   -2.7721176 
H     5.9415495    4.3624332   -1.0507172 
H     5.8906444    2.6583418   -1.5794998 
C    -0.1547071   -1.9382187    5.3447093 
C    -1.1055557   -0.9609706    5.1058917 
C    -1.4919649   -0.6521100    3.7771414 
C    -0.9325449   -1.3212606    2.6913380 
H     0.1610903   -2.1667083    6.3683790 
H    -1.5569749   -0.4114719    5.9379560 
H    -2.2246809    0.1431241    3.6052461 
C     0.0022272   -2.3908051    2.9159943 
C     0.4122663   -2.6813743    4.2685585 
C     1.3546833   -3.7280179    4.4981754 
C     1.8524941   -4.4848708    3.4504372 
C     1.4183725   -4.2279578    2.1225558 
C     0.5161649   -3.2078774    1.8671056 
H     1.6676069   -3.9341278    5.5275676 
H     2.5679138   -5.2908107    3.6432210 
H     1.7947459   -4.8434089    1.2984207 
H     0.1791454   -3.0189951    0.8436159 
C    -3.6490247   -1.7095437   -0.4621628 
C    -2.8062395   -1.9708221    0.6151186 
C    -3.0351108   -3.1314508    1.4159848 
C    -4.0949815   -3.9764774    1.1359631 
H    -3.4829574   -0.8238599   -1.0753210 
H    -2.3812793   -3.3513234    2.2637422 
H    -4.2620831   -4.8621428    1.7587610 
C    -4.9851643   -3.7163901    0.0545062 
C    -4.7589770   -2.5465066   -0.7557379 
C    -5.6460602   -2.2706690   -1.8384078 
C    -6.7078635   -3.1155148   -2.1136504 
C    -6.9245854   -4.2766682   -1.3209854 
C    -6.0824765   -4.5704168   -0.2602627 
H    -5.4650866   -1.3861949   -2.4588103 
H    -7.3834459   -2.8961562   -2.9469504 
H    -7.7658991   -4.9383759   -1.5517986 
H    -6.2527749   -5.4622393    0.3527756 
