110
Energy =
C    -0.6383663    2.4907669   -1.7873550 
C     0.4027101    2.8629763   -0.9079167 
C     1.6974243    2.2925725   -1.0102478 
H     0.1872906    3.5508461   -0.0819125 
Pd    0.1287066    0.7013901   -0.5019078 
P     1.6685630   -0.8571700    0.4882762 
P    -1.9552565   -0.4465586   -0.3944627 
H    -0.3418162    2.0039935   -2.7270675 
H     1.9771336    1.8670861   -1.9840740 
C    -4.5606015    4.2644320   -1.9288374 
C    -4.0734695    3.5120381   -3.0078803 
C    -2.7958037    2.9425318   -2.9457981 
C    -1.9767234    3.1053691   -1.8028803 
C    -2.4743752    3.8900902   -0.7356147 
C    -3.7505704    4.4586616   -0.7970967 
H    -5.5590554    4.7109649   -1.9736735 
H    -4.6877750    3.3715883   -3.9030832 
H    -2.4202508    2.3655509   -3.7975366 
H    -1.8591007    4.0598221    0.1535030 
H    -4.1162696    5.0598318    0.0417105 
C     5.0429549    3.4214154    1.4486000 
C     3.7334517    3.6341844    1.9136473 
C     2.6373813    3.2730729    1.1250586 
C     2.8252585    2.6944091   -0.1534908 
C     4.1482324    2.5039316   -0.6149338 
C     5.2456857    2.8600719    0.1791442 
H     5.8992780    3.6974412    2.0720493 
H     3.5691047    4.0724000    2.9033629 
H     1.6254935    3.4063755    1.5212904 
H     4.3136943    2.0778746   -1.6108436 
H     6.2621028    2.7020193   -0.1955643 
Fe   -0.6711160   -3.2525317    1.0433139 
C    -1.8421945   -2.2557618   -0.2351658 
C    -2.6383233   -3.1648179    0.5648857 
H    -3.4536472   -2.8919479    1.2365053 
C    -2.1493851   -4.4956595    0.3493439 
H    -2.5233461   -5.3972467    0.8377770 
C    -1.0645253   -4.4319318   -0.5853668 
H    -0.4677941   -5.2763340   -0.9344999 
C    -0.8708357   -3.0600169   -0.9490070 
C     0.9337742   -2.1572156    1.5445860 
C     1.2422822   -3.5760906    1.5926477 
H     1.9909358   -4.0995443    0.9976668 
C     0.3623933   -4.1980811    2.5386024 
H     0.3341506   -5.2634148    2.7742141 
C    -0.4952435   -3.1892737    3.0844532 
H    -1.2938260   -3.3485058    3.8110013 
C    -0.1516166   -1.9381207    2.4786802 
H    -0.1128493   -2.6752280   -1.6316722 
H    -0.6406198   -0.9842174    2.6664723 
C     3.1779562   -0.2221693    1.4863894 
C     4.4060378   -0.8853236    0.8044503 
C     3.9669970   -2.1892746    0.1318708 
C     2.7239447   -1.8602137   -0.7247425 
H     3.2141913    0.8628220    1.3099740 
H     4.8134701   -0.1917807    0.0480777 
H     5.2143266   -1.0614427    1.5312806 
H     4.7699895   -2.6384311   -0.4761642 
H     3.7084321   -2.9311568    0.9064476 
H     2.1610049   -2.7743086   -0.9882042 
C    -3.2981463   -0.2476074   -1.7074351 
C    -4.5663372   -0.6605061   -0.9389970 
C    -4.5474355    0.0761496    0.4031702 
C    -3.1175175    0.0612110    1.0309586 
H    -3.3244877    0.8500355   -1.8416792 
H    -5.4715694   -0.4072038   -1.5209504 
H    -4.5775265   -1.7540413   -0.7871410 
H    -4.8263029    1.1301215    0.2213773 
H    -5.2880023   -0.3380643    1.1078963 
H    -3.0190610   -0.7513189    1.7747175 
C    -2.8192092    1.4162631    1.7303912 
H    -2.8927307    2.1907185    0.9453363 
C    -3.1453831   -0.8811716   -3.1186951 
H    -3.8519618   -0.3019500   -3.7474218 
C     3.0361885   -0.4240269    3.0205580 
H     2.7515250   -1.4749613    3.2205003 
C     3.0392505   -1.0669035   -2.0279498 
H     3.3270636   -0.0388824   -1.7334600 
C    -3.5743168   -2.3578542   -3.2151914 
H    -3.4538053   -2.7101188   -4.2545408 
H    -2.9629514   -3.0074739   -2.5671491 
H    -4.6330416   -2.4996162   -2.9423140 
C    -1.7439653   -0.6902066   -3.7161991 
H    -1.7306038   -0.9750722   -4.7822241 
H    -1.3996686    0.3539663   -3.6392114 
H    -1.0081948   -1.3228604   -3.1942798 
C    -3.8951995    1.7171009    2.7952864 
H    -3.6794572    2.6784059    3.2932591 
H    -4.9092755    1.7845527    2.3692838 
H    -3.9027354    0.9308068    3.5730871 
C    -1.4339249    1.5279845    2.3756821 
H    -1.2557634    2.5567970    2.7351408 
H    -1.3405474    0.8581977    3.2496012 
H    -0.6251696    1.2798022    1.6560145 
C     1.9355702    0.5016921    3.5666803 
H     1.6757278    0.2460026    4.6079696 
H     2.2757018    1.5520739    3.5438395 
H     1.0170109    0.4452418    2.9626321 
C     4.3545562   -0.1373758    3.7666517 
H     4.1812905   -0.1631789    4.8566299 
H     5.1396143   -0.8785183    3.5428504 
H     4.7416344    0.8654227    3.5071697 
C     1.8030933   -0.9687479   -2.9312424 
H     1.9951945   -0.3255394   -3.8076060 
H     1.5052463   -1.9657095   -3.3049804 
H     0.9418321   -0.5365050   -2.3811009 
C     4.2186801   -1.6706106   -2.8136375 
H     4.3436611   -1.1398039   -3.7733280 
H     5.1731221   -1.5920653   -2.2672469 
H     4.0387330   -2.7374125   -3.0409849 
