86
Energy =
C     0.1705492    2.8688177   -0.3243849 
C     1.3551137    2.5239601    0.4102794 
C     2.3831906    1.7529302   -0.1699664 
H     1.4259692    2.8101894    1.4677591 
Pd    0.2297779    0.6658241   -0.0788398 
P     0.9204144   -1.4683652    1.0088316 
P    -1.7110385    0.2023216   -1.3776537 
H     0.2842725    3.0051442   -1.4093621 
H     2.3122588    1.5657414   -1.2525896 
C    -3.1903019    4.9135573    1.4392031 
C    -2.4293727    4.0182139    2.2100298 
C    -1.3341206    3.3564349    1.6457341 
C    -0.9676837    3.5768415    0.2954638 
C    -1.7364336    4.4900309   -0.4626038 
C    -2.8374280    5.1475273    0.1012756 
H    -4.0498528    5.4278005    1.8807907 
H    -2.6986025    3.8295202    3.2545840 
H    -0.7714653    2.6328649    2.2477758 
H    -1.4556052    4.6973787   -1.5016882 
H    -3.4164525    5.8528789   -0.5038645 
C     6.1378082    0.5579217    1.5362843 
C     5.7266281    0.0668136    0.2855413 
C     4.5115033    0.4851105   -0.2628288 
C     3.6646956    1.3863852    0.4313153 
C     4.1147340    1.9020093    1.6717560 
C     5.3338210    1.4876774    2.2168104 
H     7.0907212    0.2355426    1.9679125 
H     6.3606230   -0.6364945   -0.2639503 
H     4.2017175    0.1106705   -1.2451474 
H     3.5127302    2.6411305    2.2091347 
H     5.6659870    1.8995713    3.1753177 
Fe   -0.1280793   -1.7618403   -1.0302536 
C    -1.2604590   -1.1488737   -2.5282137 
C    -1.4524726   -2.5735720   -2.2798004 
H    -2.3683042   -3.0037984   -1.8525712 
C    -0.4955336   -3.4286605   -3.1095872 
H    -0.9523342   -4.0671254   -3.8858160 
C     0.5777552   -2.3985678   -3.5791455 
H     0.8282173   -2.3629155   -4.6529372 
C     0.1186999   -1.0980468   -2.9555744 
C     1.3299148   -2.8075246   -0.1886278 
C     1.8336824   -2.2066150   -1.4109900 
H     2.5451509   -1.3727670   -1.4098575 
C     1.6446081   -3.0829207   -2.6245586 
H     2.5604210   -3.4670700   -3.1047827 
C     0.5714612   -4.1097393   -2.1563682 
H     0.7838335   -5.1785790   -2.3311997 
C     0.3049312   -3.7024637   -0.7066147 
H     0.6688804   -0.1610022   -3.1105321 
H    -0.3663078   -4.2983351   -0.0802080 
C    -0.2161302   -2.1278352    2.3479156 
C     0.7098483   -2.9351608    3.3068715 
C     2.2102851   -2.6490992    2.9910656 
C     2.3196698   -1.2954013    2.2601900 
H    -0.5106314   -1.1800482    2.8384361 
H     0.4677723   -2.6746648    4.3516349 
H     0.5046924   -4.0132279    3.1949455 
H     2.8209278   -2.6409375    3.9115077 
H     2.6124172   -3.4447764    2.3410078 
H     3.2728458   -1.1810481    1.7182568 
C    -2.4953716    1.5979065   -2.4223592 
C    -3.9357203    1.7138435   -1.8649010 
C    -4.4026873    0.3182790   -1.4109060 
C    -3.3013866   -0.2667287   -0.4968901 
H    -1.9283172    2.5157969   -2.2064924 
H    -3.9437961    2.4133734   -1.0100922 
H    -4.6100858    2.1354429   -2.6314974 
H    -5.3693044    0.3621262   -0.8775907 
H    -4.5434701   -0.3380166   -2.2893136 
H    -3.3649466   -1.3680278   -0.4512633 
C    -3.3163217    0.3155989    0.9277051 
H    -3.2409434    1.4158678    0.9207681 
H    -4.2558963    0.0386754    1.4372385 
C    -2.4311942    1.2949309   -3.9248207 
H    -2.8847259    2.1311905   -4.4863746 
H    -1.3924053    1.1742683   -4.2756737 
C    -1.5020745   -2.8460208    1.9175963 
H    -1.9811059   -2.3513224    1.0532536 
H    -2.2319955   -2.8496790    2.7453165 
C     2.0769749   -0.0946053    3.1898862 
H     1.8167847    0.8127823    2.6216077 
H     2.9911768    0.1169964    3.7686234 
H    -2.9791321    0.3713239   -4.1794992 
H    -2.4702131   -0.0633555    1.5256225 
H     1.2622930   -0.2893689    3.9087110 
H    -1.3060558   -3.8946122    1.6442331 
