90
Energy =
C     2.8224300    1.0792319   -0.0631149 
C     2.7000125    0.3003616    1.1142715 
C     2.5696484   -1.1060450    1.0758311 
H     2.6336600    0.8147804    2.0802048 
Pd    0.8029840   -0.0424954    0.0107496 
P    -0.8202353   -1.7178540    0.5075099 
P    -0.3963922    1.4386241   -1.3975675 
H     3.1834899    0.5628156   -0.9640092 
H     2.8820567   -1.6074949    0.1483813 
C     3.5476739    5.3257167   -0.0539678 
C     2.9216319    4.7233811    1.0501350 
C     2.6792581    3.3465494    1.0595160 
C     3.0541468    2.5356394   -0.0381734 
C     3.7070478    3.1537710   -1.1301223 
C     3.9477614    4.5329408   -1.1402025 
H     3.7313721    6.4048427   -0.0615563 
H     2.6166781    5.3331013    1.9069641 
H     2.1713017    2.9016977    1.9209093 
H     4.0392628    2.5409081   -1.9742179 
H     4.4557861    4.9892778   -1.9959635 
C     2.6659105   -3.6968047    4.5166586 
C     2.8109077   -4.2157587    3.2209957 
C     2.7727697   -3.3600326    2.1136112 
C     2.5714722   -1.9683160    2.2718961 
C     2.4431226   -1.4604859    3.5869816 
C     2.4930708   -2.3140180    4.6938247 
H     2.6999860   -4.3629844    5.3845022 
H     2.9660498   -5.2894010    3.0732533 
H     2.9128040   -3.7693482    1.1070029 
H     2.3071357   -0.3875607    3.7540194 
H     2.3942049   -1.8991199    5.7020624 
Fe   -3.3871821   -0.3221873   -1.3240870 
C    -2.3534278   -1.8161915   -0.4770796 
C    -2.3693548   -1.9696357   -1.9164472 
H    -1.4914555   -1.9971651   -2.5588273 
C    -3.7304773   -2.0683714   -2.3506738 
H    -4.0660448   -2.1608007   -3.3849680 
C    -4.5709123   -1.9913635   -1.1937579 
H    -5.6622657   -2.0072483   -1.1883945 
C    -3.7346301   -1.8443551   -0.0386774 
C    -2.2153669    1.3123164   -1.4292989 
C    -3.0589173    1.3438934   -0.2500791 
H    -2.7125337    1.3635865    0.7834076 
C    -4.4285822    1.3092309   -0.6722625 
H    -5.2988126    1.2926586   -0.0138546 
C    -4.4522347    1.2512433   -2.1033254 
H    -5.3439399    1.1827060   -2.7289395 
C    -3.0999031    1.2572229   -2.5764092 
C    -0.1599106    3.2485161   -0.9411035 
C     0.0925288    1.3448200   -3.2124434 
H    -4.0955588   -1.7386344    0.9854502 
H    -2.8005165    1.2133810   -3.6242447 
C    -0.1836940   -3.4828728    0.3171620 
C    -1.4340833   -1.5219135    2.2957362 
H     0.9335221    3.3898506   -1.0014120 
H    -0.6113537    2.0255706   -3.7262409 
H     0.4696129   -3.6145910    1.1974703 
H    -2.5332410   -1.5658624    2.2176059 
C    -1.3013978   -4.5416791    0.3418987 
H    -0.8501085   -5.5484524    0.3995243 
H    -1.9822842   -4.4267178    1.2006979 
H    -1.9106023   -4.4934935   -0.5764809 
C     0.6744486   -3.6223324   -0.9533106 
H     1.1688845   -4.6100902   -0.9629828 
H     0.0561022   -3.5567348   -1.8649944 
H     1.4547348   -2.8449403   -1.0158808 
C    -1.0477548   -0.1344411    2.8413546 
H    -1.5021647    0.0160844    3.8368342 
H     0.0467550   -0.0451433    2.9499765 
H    -1.3882669    0.6821518    2.1836630 
C    -0.9769751   -2.6366052    3.2538559 
H    -1.3640055   -2.4152819    4.2644618 
H    -1.3586028   -3.6268466    2.9633255 
H     0.1199238   -2.6928391    3.3273269 
C    -0.8555645    4.2176189   -1.9106872 
H    -0.6888298    5.2552326   -1.5703226 
H    -0.4614895    4.1426030   -2.9381790 
H    -1.9454948    4.0425012   -1.9406447 
C    -0.5912073    3.4927756    0.5156187 
H    -0.2064965    4.4701377    0.8534618 
H    -1.6901163    3.5105387    0.6104176 
H    -0.1935061    2.7176820    1.1946420 
C     1.5223560    1.8572568   -3.4385796 
H     1.7392313    1.8641960   -4.5212458 
H     1.6790657    2.8785436   -3.0573707 
H     2.2566195    1.1902475   -2.9563514 
C    -0.0730180   -0.0716323   -3.7843037 
H     0.2638593   -0.0891217   -4.8358102 
H     0.5390752   -0.7974567   -3.2176846 
H    -1.1214438   -0.4034856   -3.7569220 
