90
Energy =
C     2.8022770    1.1182583   -0.2597837 
C     2.8216665    0.1523710    0.7807427 
C     2.6750561   -1.2259224    0.5181992 
H     2.9003396    0.4923863    1.8207971 
Pd    0.7941581    0.0130092   -0.1079298 
P    -0.8958645   -1.5001028    0.6374850 
P    -0.5427957    1.5506227   -1.3741065 
H     3.0805328    0.7640390   -1.2616979 
H     2.8261976   -1.5546177   -0.5211661 
C     3.6712938    5.2757900    0.4751043 
C     3.0279942    4.5117712    1.4627855 
C     2.7313688    3.1650676    1.2294024 
C     3.0657073    2.5485062    0.0009087 
C     3.7324739    3.3256079   -0.9740246 
C     4.0294701    4.6742841   -0.7408060 
H     3.8987281    6.3310605    0.6563918 
H     2.7531550    4.9704010    2.4182666 
H     2.2226437    2.5868294    2.0083944 
H     4.0338969    2.8618807   -1.9187709 
H     4.5482471    5.2561895   -1.5095033 
C     3.1515953   -4.3948674    3.3876374 
C     2.8649576   -3.0933436    3.8353669 
C     2.7113543   -2.0500650    2.9182793 
C     2.8278999   -2.2856209    1.5266251 
C     3.1411225   -3.5957454    1.0951895 
C     3.3005071   -4.6391802    2.0144683 
H     3.2698015   -5.2101722    4.1085124 
H     2.7638999   -2.8928180    4.9069410 
H     2.4875508   -1.0456149    3.2893257 
H     3.2611999   -3.7926741    0.0245860 
H     3.5438600   -5.6453347    1.6581528 
Fe   -3.2496904   -0.6109929   -1.6408471 
C    -2.1791632   -1.9162384   -0.5801232 
C    -1.8410218   -2.0171245   -1.9856896 
H    -0.8460271   -1.8493814   -2.3974862 
C    -3.0245619   -2.3486671   -2.7179468 
H    -3.0972688   -2.4594717   -3.8011861 
C    -4.1013028   -2.4777901   -1.7820533 
H    -5.1416942   -2.7001826   -2.0262087 
C    -3.5917441   -2.2300778   -0.4656146 
C    -2.3249519    1.1666114   -1.6235138 
C    -3.3050695    1.0861536   -0.5560973 
H    -3.1043397    1.1750821    0.5106099 
C    -4.5950404    0.8491414   -1.1323449 
H    -5.5237993    0.7082786   -0.5768982 
C    -4.4422548    0.7939476   -2.5535848 
H    -5.2340491    0.6035614   -3.2801776 
C    -3.0592656    0.9997464   -2.8652673 
C    -0.8069477    3.3032744   -0.6613308 
C     0.0573103    1.6920303   -3.1612476 
H    -4.1823888   -2.2556098    0.4486303 
H    -2.6474951    1.0122062   -3.8739649 
C    -0.3517968   -3.2122344    1.1868069 
C    -1.6330115   -0.5981214    2.1218716 
H    -1.8214468    3.5468059   -1.0264331 
H    -0.6775626    2.3671559   -3.6403221 
H     0.5140527   -3.0327127    1.8469851 
H    -1.6546406    0.4422110    1.7502051 
C    -1.4169424   -4.0055883    1.9619937 
H    -1.0330046   -5.0215273    2.1650738 
H    -1.6572338   -3.5456337    2.9338848 
H    -2.3491739   -4.1112872    1.3798671 
C     0.1255592   -3.9879385   -0.0545029 
H     0.6486163   -4.9056457    0.2635001 
H    -0.7263944   -4.2793603   -0.6926785 
H     0.8247066   -3.3928203   -0.6678913 
C    -0.6063260   -0.6303760    3.2705659 
H    -0.9419389    0.0358589    4.0846677 
H    -0.4798755   -1.6418091    3.6926377 
H     0.3800356   -0.2754391    2.9256021 
C    -3.0539244   -0.9597169    2.5827844 
H    -3.3078871   -0.3468684    3.4666280 
H    -3.7980171   -0.7377144    1.8021904 
H    -3.1534098   -2.0174832    2.8716244 
C    -0.8510960    3.2056989    0.8739648 
H    -1.0736785    4.1974683    1.3058992 
H    -1.6303338    2.5099476    1.2258434 
H     0.1170069    2.8645785    1.2743375 
C     0.1380078    4.4179577   -1.1315066 
H    -0.1735714    5.3605347   -0.6466887 
H     1.1853158    4.2332798   -0.8493619 
H     0.0795770    4.5770651   -2.2203981 
C     1.4662835    2.2836557   -3.3251894 
H     1.6492623    2.4681732   -4.3985744 
H     1.6209585    3.2271369   -2.7880675 
H     2.2263504    1.5629466   -2.9837132 
C     0.0291471    0.3130285   -3.8502822 
H     0.3281310    0.4261789   -4.9074181 
H     0.7567869   -0.3648377   -3.3663416 
H    -0.9580614   -0.1690602   -3.8209948 
