110
Energy =
C     2.6152034    1.3005773    0.6673224 
C     2.7186290    1.9402746   -0.6177013 
C     1.9572964    3.0696481   -0.9461180 
H     3.3895780    1.5030893   -1.3688668 
Pd    0.7171288    0.9667803   -0.3926895 
P    -1.0782403    0.6276338   -1.9469200 
P    -0.1080318   -0.3722683    1.3065914 
H     2.3600599    1.9481721    1.5169356 
H     1.3720442    3.5291940   -0.1351135 
C     5.2226136   -1.9855206    1.6420204 
C     4.9440951   -0.9927591    2.5931196 
C     4.0654250    0.0543874    2.2826169 
C     3.4704360    0.1413931    1.0044155 
C     3.7487258   -0.8764236    0.0609245 
C     4.6123041   -1.9288318    0.3774006 
H     5.8957374   -2.8136913    1.8850743 
H     5.4120325   -1.0330916    3.5823834 
H     3.8523846    0.8288398    3.0282994 
H     3.2619695   -0.8500440   -0.9215175 
H     4.8013316   -2.7211640   -0.3528749 
C     2.2334751    5.5550681   -4.4330708 
C     1.3677176    5.8878330   -3.3798902 
C     1.2914514    5.0639947   -2.2525159 
C     2.0709697    3.8845159   -2.1548076 
C     2.9572500    3.5777242   -3.2175345 
C     3.0324447    4.4016305   -4.3426116 
H     2.2978535    6.1987995   -5.3162325 
H     0.7566460    6.7943788   -3.4355026 
H     0.6213112    5.3317656   -1.4276985 
H     3.5972342    2.6918316   -3.1624847 
H     3.7237616    4.1504111   -5.1534340 
Fe   -3.1573928   -2.2074270    1.2946174 
C    -1.9066622   -0.6344233    1.1532562 
C    -2.6275002   -0.8154786   -0.0979382 
C    -4.0341135   -0.7313223    0.2019504 
C    -4.1918990   -0.4781052    1.6031077 
C    -2.8921119   -0.4162662    2.1972544 
C    -4.0224917   -3.9364527    0.6488407 
C    -2.5917423   -4.0645487    0.6570921 
C    -2.1350709   -3.8393744    2.0004731 
C    -3.2799733   -3.5661473    2.8190233 
C    -4.4472838   -3.6262928    1.9850750 
C    -0.0195923    0.3728155    2.9857118 
C     0.1261968    1.7662593    3.1145152 
C     0.0927480    2.3733451    4.3766558 
C    -0.0921650    1.5865835    5.5222129 
C    -0.2672173    0.1968130    5.4049135 
C    -0.2378308   -0.4066229    4.1439954 
C     0.7819434   -1.9775855    1.4083762 
C     1.6896313   -2.2680205    2.4463315 
C     2.4346220   -3.4526969    2.4250791 
C     2.3023504   -4.3504754    1.3574694 
C     1.4099842   -4.0680085    0.3111177 
C     0.6627463   -2.8882873    0.3379899 
C    -2.0127207   -0.9722336   -1.4633389 
H    -4.8489923   -0.8671409   -0.5103056 
H    -5.1403081   -0.3862446    2.1350220 
H    -2.6813981   -0.2334833    3.2505212 
H    -4.6752693   -4.0472602   -0.2191414 
H    -1.9649827   -4.3051218   -0.2031593 
H    -1.0968291   -3.8596491    2.3345201 
H    -3.2667581   -3.3355402    3.8858568 
H    -5.4750643   -3.4471508    2.3057289 
H     0.2478368    2.3827756    2.2173199 
H    -0.4045635   -1.4852874    4.0601734 
H     1.8425625   -1.5666481    3.2684245 
H    -0.0258643   -2.6801197   -0.4841388 
H    -1.1517140   -1.6530874   -1.3615812 
C    -2.9883321   -1.6244772   -2.4599230 
H    -3.4094103   -2.5245168   -1.9789602 
H    -3.8238377   -0.9666178   -2.7374794 
H    -2.4823235   -1.9428981   -3.3825867 
C    -0.0776294    2.2173182    6.9001511 
F     1.1187714    2.0250192    7.5052537 
F    -0.2976335    3.5494101    6.8457163 
F    -1.0235871    1.6703213    7.6979369 
H     0.2026236    3.4569269    4.4738120 
H    -0.4387621   -0.4077630    6.3006058 
H     3.1366008   -3.6681012    3.2347776 
H     1.3056481   -4.7702030   -0.5208239 
C     3.1956559   -5.5683205    1.2920332 
F     2.6645100   -6.5452804    0.5247631 
F     4.4050835   -5.2476451    0.7517291 
F     3.4356907   -6.0807419    2.5186800 
C    -0.3341213    0.2247739   -3.6730680 
C    -2.3153421    2.0835126   -1.9789682 
C     0.8079941    1.2239611   -3.9526206 
H     1.2760899    0.9743370   -4.9224678 
H     0.4696310    2.2682762   -4.0050286 
H     1.5842613    1.1546319   -3.1726690 
C    -3.7032174    1.7260705   -2.5465269 
H    -4.3215005    2.6423426   -2.5718235 
H    -3.6503562    1.3324165   -3.5739673 
H    -4.2261462    0.9967174   -1.9086025 
C     0.3129841   -1.1779360   -3.5516690 
H     0.9389733   -1.3595950   -4.4438037 
H     0.9698733   -1.2381301   -2.6627083 
H    -0.4256398   -1.9936400   -3.4988983 
C    -1.3429147    0.2669883   -4.8397639 
H    -0.8278449   -0.0522776   -5.7647269 
H    -2.2046328   -0.4002461   -4.6927654 
H    -1.7215059    1.2872335   -5.0128699 
C    -2.4629656    2.5493092   -0.5080014 
H    -3.1499836    3.4150450   -0.4754447 
H    -2.8758402    1.7633159    0.1439162 
H    -1.4889731    2.8677974   -0.0932720 
C    -1.6975474    3.2395776   -2.7907003 
H    -2.3093658    4.1476650   -2.6395528 
H    -0.6720652    3.4668990   -2.4594586 
H    -1.6768607    3.0322853   -3.8727652 
