132
Energy =
C     2.1224500   -1.5645917   -2.4056256 
C     2.0962580   -0.1592570   -2.5459847 
C     2.5912750    0.7103430   -1.5280847 
H     1.5678498    0.2741845   -3.4053567 
Pd    0.9197381   -0.5177123   -0.7285765 
P     0.5289439    0.7509973    1.1818239 
P    -1.0505618   -1.7879723   -0.3352198 
H     2.8555081   -1.9859678   -1.7003229 
H     3.4196816    0.3467066   -0.9033159 
C     0.8354894   -4.3040174   -5.4661526 
C     0.1611465   -3.0824166   -5.2983076 
C     0.5581496   -2.1894427   -4.2974414 
C     1.6372396   -2.4994840   -3.4380770 
C     2.2952121   -3.7391344   -3.6078570 
C     1.9044475   -4.6278275   -4.6172324 
H     0.5257716   -5.0001109   -6.2522200 
H    -0.6782711   -2.8257800   -5.9531201 
H     0.0205000   -1.2444176   -4.1708965 
H     3.1309560   -3.9985636   -2.9480828 
H     2.4339506   -5.5783174   -4.7384581 
C     2.2848570    5.0049185   -1.7780585 
C     3.3408847    4.4015800   -1.0813192 
C     3.4317702    3.0063458   -1.0032458 
C     2.4693276    2.1811067   -1.6227462 
C     1.4113954    2.8032565   -2.3281368 
C     1.3214677    4.1969841   -2.4055749 
H     2.2128048    6.0957802   -1.8374978 
H     4.0999440    5.0197956   -0.5924506 
H     4.2571724    2.5456991   -0.4515785 
H     0.6394803    2.1902021   -2.8067672 
H     0.4951588    4.6573350   -2.9578688 
Fe    1.6094663   -2.0760621    2.8073340 
C     0.3951406   -0.4551576    2.5257811 
C    -0.3577911   -1.7005614    2.4763707 
C    -0.1619697   -2.3510198    3.7497586 
C     0.7041601   -1.5479960    4.5589224 
C     1.0576109   -0.3829490    3.8090606 
C     2.3611000   -3.2004795    1.2650894 
C     3.2416203   -2.1056943    1.5477156 
C     3.6524850   -2.2000301    2.9185412 
C     3.0304944   -3.3652277    3.4818978 
C     2.2315044   -3.9837231    2.4598114 
C    -1.0146135    1.7319580    1.2291292 
C    -1.2423199    2.6855373    0.2164843 
C    -2.4067152    3.4684067    0.2129241 
C    -3.3708925    3.2381564    1.2238442 
C    -3.1621622    2.2964964    2.2580507 
C    -1.9629703    1.5609216    2.2524460 
C     1.8323041    1.9199120    1.7331784 
C     3.1240219    1.4179137    1.9892311 
C     4.1590159    2.2574756    2.4206771 
C     3.8836094    3.6381995    2.5708745 
C     2.5983366    4.1694668    2.3264727 
C     1.5814218    3.2904996    1.9097371 
C    -1.3673596   -2.2336932    1.4773423 
H    -0.5903532   -3.3155121    4.0320421 
H     1.0629060   -1.7975323    5.5590712 
H     1.7144822    0.4241655    4.1349788 
H     1.8778724   -3.3923773    0.3099610 
H     3.5427203   -1.3400196    0.8315895 
H     4.3085027   -1.5059404    3.4468241 
H     3.1294187   -3.7080118    4.5134371 
H     1.6219404   -4.8814091    2.5795585 
H    -0.4926182    2.8362098   -0.5679580 
H    -1.7679570    0.8521808    3.0645754 
H     3.3108004    0.3480699    1.8824325 
H     0.5807057    3.6965043    1.7349917 
H    -1.2230956   -3.3297768    1.4753538 
H    -1.3715588   -3.1326456   -2.2855838 
H    -2.3895738    0.1841779   -0.1814767 
C    -4.7636717    0.0796450   -1.5209858 
C    -3.8483929   -1.0982667   -1.1341509 
C    -2.3949317   -0.6079138   -0.9546263 
C    -1.9163804    0.0330037   -2.2821867 
C    -2.8387902    1.1768498   -2.7358416 
C    -4.3060536    0.7343506   -2.8327364 
H    -4.7471880    0.8287507   -0.7052323 
H    -5.8059454   -0.2764931   -1.6082045 
H    -3.8834196   -1.8523090   -1.9425090 
H    -4.2327610   -1.5792085   -0.2226407 
H    -0.8815057    0.4098421   -2.1556310 
H    -1.8804251   -0.7492114   -3.0654117 
H    -2.7557460    1.9985610   -2.0030684 
H    -2.4850716    1.5739530   -3.7049861 
H    -4.4206399    0.0064828   -3.6600333 
H    -4.9502611    1.5973727   -3.0814623 
C    -2.7443110   -5.4778661   -1.6927230 
C    -2.5953541   -4.2059105   -0.8342295 
C    -1.3124392   -3.4273570   -1.2184852 
C    -0.0918394   -4.3552788   -1.0494270 
C    -0.2318770   -5.6296982   -1.8995437 
C    -1.5196568   -6.3948913   -1.5615766 
H    -2.8740944   -5.1832606   -2.7526989 
H    -3.6651061   -6.0121306   -1.3970708 
H    -2.5309265   -4.5044544    0.2303491 
H    -3.4950883   -3.5836041   -0.9368800 
H     0.8277688   -3.8177074   -1.3286049 
H     0.0010979   -4.6383619    0.0183228 
H    -0.2408245   -5.3411508   -2.9669174 
H     0.6563249   -6.2705514   -1.7537999 
H    -1.4602721   -6.7773316   -0.5230721 
H    -1.6268609   -7.2771554   -2.2174197 
C    -2.8058082   -1.9554803    1.9742635 
H    -3.0709952   -0.8904171    1.8779585 
H    -3.5438051   -2.5565604    1.4206331 
H    -2.8798685   -2.2257448    3.0414943 
C    -2.6410240    4.5452174   -0.8200295 
H    -1.7357477    4.7148889   -1.4241018 
H    -3.4642665    4.2771073   -1.5075175 
H    -2.9323015    5.4905051   -0.3315969 
C    -4.1922477    2.1117168    3.3471603 
H    -4.6977508    3.0655926    3.5688154 
H    -4.9718478    1.3887427    3.0398607 
H    -3.7286502    1.7246233    4.2690446 
O    -4.4993757    4.0275935    1.2425426 
C    -5.6553108    3.4890255    0.5883001 
H    -6.4540171    4.2367038    0.7031184 
H    -5.4641062    3.3185200   -0.4887573 
H    -5.9751737    2.5362517    1.0511465 
C     5.5384213    1.7284526    2.7333380 
H     5.8333447    1.9908683    3.7640531 
H     5.5803628    0.6331378    2.6171193 
H     6.2998628    2.1716341    2.0663881 
C     2.3160986    5.6402696    2.5197860 
H     2.4943218    6.2025633    1.5834008 
H     1.2643122    5.8057770    2.8052601 
H     2.9697328    6.0647971    3.2990598 
O     4.8966067    4.4424142    3.0458901 
C     5.5949923    5.2306118    2.0747298 
H     6.4086988    5.7377903    2.6140230 
H     6.0241555    4.5932171    1.2775019 
H     4.9363417    5.9908267    1.6138793 
