142
Energy =
C     2.9144239    1.8112500   -1.4451164 
C     3.3888451    0.5089928   -1.1077480 
C     2.9569339   -0.6542613   -1.7814117 
H     4.0096480    0.3971164   -0.2102715 
Pd    1.2075719    0.5133719   -0.7864584 
P     0.0600207   -1.3449139    0.1039403 
P    -0.3872368    2.1284756   -0.2653212 
H     2.6276646    1.9978284   -2.4906916 
H     2.4902276   -0.5204871   -2.7695787 
C     4.0814146    5.2970987    0.8046010 
C     3.9249701    4.0631900    1.4573933 
C     3.5523780    2.9290080    0.7297273 
C     3.3105469    3.0008924   -0.6629049 
C     3.4678621    4.2483391   -1.3034831 
C     3.8564797    5.3819839   -0.5769118 
H     4.3603623    6.1896399    1.3722529 
H     4.0828450    3.9848615    2.5375179 
H     3.4412632    1.9721860    1.2521087 
H     3.2885180    4.3309107   -2.3798629 
H     3.9710282    6.3402114   -1.0936573 
C     4.2770548   -4.6690564   -0.9969320 
C     3.4106611   -4.3973012   -2.0662873 
C     2.9898332   -3.0858949   -2.3089136 
C     3.4123244   -2.0190993   -1.4813938 
C     4.2925410   -2.3108722   -0.4124181 
C     4.7200171   -3.6194730   -0.1750137 
H     4.6107086   -5.6938827   -0.8047156 
H     3.0675970   -5.2067788   -2.7186385 
H     2.3295638   -2.8805777   -3.1561509 
H     4.6517943   -1.5121469    0.2416352 
H     5.3935524   -3.8238981    0.6631972 
Fe   -4.4364691    0.1008567   -2.0013561 
C    -2.4862074    0.6934532   -1.6591366 
C    -2.8397438   -0.4368056   -0.8187654 
C    -3.2699157   -1.5048443   -1.6900766 
H    -3.6026520   -2.4862651   -1.3527935 
C    -3.1562681   -1.0650676   -3.0469234 
H    -3.4202944   -1.6440307   -3.9335024 
C    -2.6840426    0.2868887   -3.0300614 
H    -2.5218885    0.9231792   -3.9034081 
C    -5.7544617    1.6378491   -2.3736825 
H    -5.5182824    2.6659825   -2.6512131 
C    -5.9384346    1.1359979   -1.0417707 
H    -5.8748919    1.7185177   -0.1208935 
C    -6.2576701   -0.2610322   -1.1350077 
H    -6.4511602   -0.9384794   -0.3012509 
C    -6.2701731   -0.6197252   -2.5232852 
H    -6.4560004   -1.6175722   -2.9252711 
C    -5.9569556    0.5533550   -3.2885675 
H    -5.8681824    0.6059307   -4.3752918 
C    -2.6491567   -0.5919791    0.6503776 
C    -1.4013848   -1.0178272    1.1970916 
C    -1.2720017   -1.1673295    2.5932106 
H    -0.3109048   -1.4697763    3.0196926 
C    -2.3604592   -0.9375947    3.4460940 
H    -2.2378620   -1.0546477    4.5274706 
C    -3.5972093   -0.5574028    2.9114205 
H    -4.4517119   -0.3763592    3.5695096 
C    -3.7280939   -0.3803654    1.5284546 
H    -4.6807318   -0.0645617    1.0976461 
C     1.2898422   -2.1806958    1.1933134 
C     2.1607866   -1.3760683    1.9589787 
H     2.0768429   -0.2851470    1.9062580 
C     3.1611521   -1.9388743    2.7658136 
C     3.2687607   -3.3484667    2.8015280 
C     2.4267186   -4.1812158    2.0324662 
C     1.4458169   -3.5769513    1.2281043 
H     0.8297236   -4.2176680    0.5919612 
C    -0.5194171   -2.6127196   -1.0732631 
C    -1.2387564   -3.7423872   -0.6316995 
H    -1.4744450   -3.8614648    0.4321348 
C    -1.6889278   -4.7085917   -1.5427346 
C    -1.4186770   -4.5084072   -2.9194477 
C    -0.6960766   -3.3884999   -3.3874033 
C    -0.2606773   -2.4460898   -2.4411151 
H     0.2688623   -1.5490853   -2.7809753 
C    -0.6968081    2.1505589    1.5546480 
C     0.4404736    1.9556913    2.3596309 
H     1.4137938    1.7985066    1.8883067 
C     0.3413302    1.9773874    3.7563074 
C    -0.8946373    2.1974535    4.3762795 
H    -0.9745288    2.2058385    5.4668474 
C    -2.0282006    2.3914737    3.5760533 
C    -1.9365062    2.3736839    2.1779562 
H    -2.8439037    2.5178935    1.5973810 
C     0.0968313    3.8864456   -0.5885423 
C     0.3678869    4.7988868    0.4460503 
H     0.3157843    4.4927313    1.4929846 
C     0.7238701    6.1208778    0.1452250 
C     0.7975530    6.5609801   -1.1822316 
H     1.0709671    7.5942132   -1.4113829 
C     0.5551569    5.6453196   -2.2142474 
C     0.2253163    4.3155232   -1.9235959 
H     0.0733700    3.6212049   -2.7566799 
C    -1.9824632    2.0733268   -1.2823494 
H    -1.5688774    2.4831128   -2.2211682 
C    -3.0608841    3.0673374   -0.8020380 
H    -3.6797376    3.3582995   -1.6632655 
H    -3.7283732    2.5945731   -0.0680057 
H    -2.6213042    3.9834283   -0.3713108 
C     1.0216359    7.0925700    1.2685471 
F     2.0379208    7.9250284    0.9368192 
F    -0.0517894    7.8623140    1.5568476 
F     1.3750340    6.4452637    2.4048793 
C     0.7652939    6.0612920   -3.6533792 
F     0.0027342    5.3312330   -4.5017541 
F     0.4833970    7.3639572   -3.8497095 
F     2.0626771    5.8691583   -4.0229824 
C     1.5550665    1.6609691    4.5977014 
F     1.5407366    2.3041124    5.7794432 
F     1.6168197    0.3265807    4.8637086 
F     2.7107199    1.9861631    3.9576932 
C    -3.3657013    2.6261144    4.2468667 
F    -4.3939443    2.5401962    3.3674970 
F    -3.5861998    1.7095136    5.2227018 
F    -3.4218128    3.8453096    4.8239833 
C     4.1486207   -1.0899902    3.5297107 
H     5.1670844   -1.4995024    3.4238759 
H     4.1343479   -0.0463749    3.1791750 
H     3.9133412   -1.0736003    4.6087174 
C     2.6205483   -5.6783917    2.0344210 
H     3.6894570   -5.9292106    2.1327186 
H     2.0924251   -6.1501285    2.8843396 
H     2.2286661   -6.1265635    1.1071228 
C    -2.4468540   -5.9360297   -1.0956380 
H    -3.5084433   -5.8856429   -1.4010382 
H    -2.0262550   -6.8432924   -1.5610587 
H    -2.4162388   -6.0446818    0.0003323 
C    -0.4093726   -3.2116674   -4.8596359 
H     0.5285002   -2.6528429   -5.0173510 
H    -0.3320284   -4.1894072   -5.3619392 
H    -1.2149390   -2.6403501   -5.3588174 
O     4.3147970   -3.9097467    3.5012147 
O    -1.8350837   -5.4751070   -3.8086585 
C     4.0305002   -4.3122189    4.8493272 
H     4.9675123   -4.7224563    5.2540666 
H     3.7089852   -3.4502801    5.4639726 
H     3.2444867   -5.0901168    4.8791858 
C    -3.0821655   -5.2186959   -4.4676506 
H    -3.2862639   -6.0955094   -5.0998270 
H    -3.9030496   -5.0929482   -3.7356010 
H    -3.0270092   -4.3144929   -5.1038028 
