98
Energy =
C    -1.3796849   -1.7184316   -2.1830555 
C    -0.9117872   -0.5501436   -2.8331208 
C     0.4746720   -0.2759199   -2.9424052 
H    -1.6354117    0.2026808   -3.1680495 
Pd   -0.1539945   -0.3880739   -0.7576301 
P     1.5435178    1.0221956    0.0827245 
P    -1.1355288   -1.1470554    1.2427303 
H    -0.6778715   -2.5618735   -2.1058559 
H     1.1544965   -1.1374677   -2.8694018 
C    -5.5137625   -2.8746437   -1.8055705 
C    -4.4897614   -3.8291564   -1.7166616 
C    -3.1514591   -3.4369721   -1.8464434 
C    -2.8037971   -2.0823310   -2.0631515 
C    -3.8513622   -1.1382519   -2.1766101 
C    -5.1880345   -1.5291208   -2.0463728 
H    -6.5606402   -3.1772306   -1.7019113 
H    -4.7331964   -4.8837996   -1.5523319 
H    -2.3588349   -4.1916783   -1.7930745 
H    -3.6218324   -0.0851383   -2.3676447 
H    -5.9819321   -0.7801681   -2.1334894 
C     2.2058056    3.1266465   -4.9274683 
C     0.8659562    3.1757687   -4.5047765 
C     0.2894089    2.0807240   -3.8543872 
C     1.0374813    0.9019413   -3.6235225 
C     2.3805333    0.8631573   -4.0651115 
C     2.9607390    1.9652655   -4.7058204 
H     2.6555859    3.9890596   -5.4295701 
H     0.2710782    4.0785923   -4.6763609 
H    -0.7456502    2.1512146   -3.5044601 
H     2.9713287   -0.0461222   -3.9079677 
H     4.0021219    1.9143825   -5.0398072 
Fe    0.9192933    0.4733531    3.3511394 
C    -0.1048980   -1.1306659    2.7424836 
C    -0.4806958   -0.7835267    4.0999402 
H    -1.4769873   -0.5055807    4.4469183 
C     0.6959477   -0.8368827    4.9169168 
H     0.7425887   -0.5964549    5.9804685 
C     1.8006192   -1.2252804    4.0910785 
H     2.8372980   -1.3329213    4.4146029 
C     1.3155412   -1.4148194    2.7563021 
C     1.3621117    1.6391772    1.7885055 
C     2.3771419    1.7711382    2.8175877 
H     3.4388351    1.5414107    2.7169991 
C     1.7414614    2.2332036    4.0164388 
H     2.2365888    2.3995963    4.9747089 
C     0.3444937    2.4037093    3.7477298 
H    -0.4129767    2.7231788    4.4655025 
C     0.1064084    2.0491492    2.3803053 
H     1.9130486   -1.7038263    1.8906967 
H    -0.8568581    2.0654082    1.8696278 
C     2.0507252    2.5874404   -0.8230448 
C     3.5304206    2.7411974   -0.4133851 
C     4.1887371    1.3573340   -0.5525052 
C     3.2731734    0.2663567    0.0744691 
H     2.0143555    2.3302885   -1.8956205 
H     4.0385023    3.4846848   -1.0521468 
H     3.5964262    3.1095243    0.6279616 
H     4.3120510    1.1323592   -1.6286284 
H     5.1946798    1.3357882   -0.0995257 
H     3.5234105    0.1205564    1.1405016 
C    -1.8807059   -2.8720057    1.3111488 
C    -3.0480066   -2.6997175    2.3028327 
C    -3.7744988   -1.4017037    1.9174349 
C    -2.7292114   -0.2655324    1.7425467 
H    -2.3120653   -3.0344711    0.3080473 
H    -3.7242769   -3.5726981    2.2597506 
H    -2.6584153   -2.6412571    3.3374268 
H    -4.2968816   -1.5549923    0.9539280 
H    -4.5376966   -1.1196254    2.6628409 
H    -2.5104955    0.1996808    2.7206571 
C    -3.1545423    0.8382546    0.7566058 
H    -2.3229411    1.5551358    0.6208931 
H    -3.3201277    0.3781830   -0.2328863 
C    -4.4168334    1.5888569    1.2003230 
H    -4.6665059    2.3926813    0.4865551 
H    -5.2879509    0.9135760    1.2617820 
H    -4.2775658    2.0509611    2.1947187 
C    -0.8887782   -3.9983908    1.6296412 
H    -0.4144958   -3.8048094    2.6099911 
H    -1.4687574   -4.9334794    1.7489840 
C     0.1864001   -4.2009656    0.5541132 
H     0.8964965   -4.9940642    0.8423334 
H    -0.2643241   -4.4884299   -0.4126300 
H     0.7656584   -3.2739979    0.3833545 
C     1.1285756    3.7895281   -0.5636012 
H     1.0900146    3.9984708    0.5219143 
H     0.0997100    3.5156483   -0.8681289 
C     1.5645646    5.0560293   -1.3145218 
H     2.5452413    5.4175464   -0.9598496 
H     1.6452923    4.8664830   -2.3990329 
H     0.8351500    5.8698448   -1.1614597 
C     3.3601130   -1.1025432   -0.6275018 
H     3.1360309   -0.9682946   -1.7017294 
H     2.5704709   -1.7716512   -0.2347649 
C     4.7317852   -1.7705042   -0.4632821 
H     4.7539448   -2.7539400   -0.9631445 
H     5.5368822   -1.1538271   -0.8994891 
H     4.9691193   -1.9269256    0.6047492 
