124
Energy =
C     1.2564323    1.2290901   -2.8499424 
C     2.1704957    0.2045390   -2.4677067 
C     1.8111585   -1.1639186   -2.5163616 
H     3.1070742    0.4895159   -1.9737453 
Pd    0.4044860    0.0405762   -1.1626977 
P     0.0234337   -1.5347118    0.5011214 
P    -1.0018141    1.6808374   -0.2964211 
H     0.4815502    0.9606705   -3.5832216 
H     0.9993304   -1.4461536   -3.2044287 
C     2.1187291    5.4418508   -2.7409892 
C     2.8949247    4.5547515   -1.9767982 
C     2.6059504    3.1869927   -1.9702719 
C     1.5474984    2.6717933   -2.7564444 
C     0.7593533    3.5790040   -3.5014606 
C     1.0392082    4.9505873   -3.4906982 
H     2.3517415    6.5115447   -2.7458034 
H     3.7263836    4.9332948   -1.3738668 
H     3.2088935    2.5208137   -1.3445108 
H    -0.0758697    3.1995109   -4.0992886 
H     0.4208010    5.6346295   -4.0809736 
C     4.2478468   -4.4809127   -1.2541752 
C     3.0204775   -4.6956165   -1.8981352 
C     2.2431321   -3.6064750   -2.3087556 
C     2.6644801   -2.2777276   -2.0667487 
C     3.9049987   -2.0767893   -1.4162576 
C     4.6887292   -3.1669405   -1.0259253 
H     4.8584805   -5.3280270   -0.9278794 
H     2.6716021   -5.7147540   -2.0941724 
H     1.3031112   -3.7874627   -2.8382984 
H     4.2661884   -1.0651988   -1.2094266 
H     5.6471721   -2.9941413   -0.5271718 
Fe   -2.7257341   -1.4868011    2.7796305 
C    -0.9600296   -0.9798034    1.9239818 
C    -1.8937562    0.1438694    1.9315018 
C    -2.2215664    0.4033022    3.3126083 
C    -1.5329608   -0.5416991    4.1416493 
C    -0.7593029   -1.3983743    3.2970898 
C    -4.5172027   -1.7466618    1.8283267 
C    -3.7050278   -2.9183399    1.6779277 
C    -3.3894424   -3.4157874    2.9878579 
C    -4.0114051   -2.5494464    3.9486731 
C    -4.7094986   -1.5183021    3.2326472 
C     1.7008052   -1.7753885    1.2327693 
C     2.2902817   -3.0157166    1.5287705 
C     3.6056112   -3.0651680    2.0123905 
C     4.3619548   -1.8939102    2.1668539 
C     3.7805665   -0.6624405    1.8405846 
C     2.4529494   -0.5971406    1.3991685 
C    -0.5925679   -3.1977617    0.0447916 
C    -0.9726282   -3.4247050   -1.2839722 
C    -1.4836620   -4.6751355   -1.6711739 
C    -1.6247624   -5.7025257   -0.7335284 
C    -1.2603025   -5.4665539    0.6045909 
C    -0.7501143   -4.2251483    0.9964644 
C    -2.4043591    0.9227462    0.7414228 
H    -2.9055917    1.1724578    3.6714030 
H    -1.6116782   -0.6152664    5.2276361 
H    -0.1010109   -2.2039927    3.6277264 
H    -4.9135600   -1.1326353    1.0169018 
H    -3.3831465   -3.3517279    0.7301651 
H    -2.7974846   -4.3007792    3.2211096 
H    -3.9514176   -2.6478849    5.0339508 
H    -5.2691138   -0.6945066    3.6796582 
H     1.7592024   -3.9537708    1.3541524 
H     2.0161454    0.3774670    1.1492199 
H    -0.8790793   -2.6201801   -2.0205375 
H    -0.5051998   -4.0567437    2.0475891 
H    -2.8240451    0.2090817    0.0075246 
C    -3.4803913    1.9489705    1.1240824 
H    -4.2843832    1.4457493    1.6889250 
H    -3.0601674    2.7498744    1.7564811 
H    -3.9267190    2.4086301    0.2289790 
C     4.2373527   -4.3981378    2.3580824 
F     4.2853473   -4.5842266    3.6962526 
F     3.5486238   -5.4345050    1.8254769 
F     5.5107731   -4.4710924    1.8973212 
C     4.5965268    0.6096114    1.8223420 
F     4.8208744    1.0010348    0.5286905 
F     3.9486379    1.6380594    2.4208221 
F     5.7958144    0.4682217    2.4129155 
C    -1.8429430   -4.8835437   -3.1264177 
F    -2.4902588   -6.0435725   -3.3356833 
F    -2.6243226   -3.8733194   -3.5810950 
F    -0.7231171   -4.8891105   -3.9012538 
C    -1.4912294   -6.5557707    1.6316315 
F    -1.0122051   -7.7438753    1.2127878 
F    -0.9022803   -6.2581572    2.8164522 
F    -2.8167383   -6.7113946    1.8708025 
H     5.4013860   -1.9435752    2.5011442 
H    -2.0233961   -6.6743459   -1.0369322 
C    -3.3733058    3.7300130   -3.6973822 
C    -3.1172741    4.4840739   -2.5358413 
C    -2.3971710    3.8808558   -1.4879872 
C    -1.9241531    2.5604115   -1.6119466 
C    -2.2177462    1.8231709   -2.7761060 
C    -2.9467316    2.3951346   -3.8336115 
H    -3.9301077    4.1955864   -4.5198782 
H    -2.2084298    4.4509795   -0.5732716 
H    -1.8635574    0.7873103   -2.8618290 
C    -3.6277045    5.9023959   -2.4089341 
H    -4.7151337    5.9090322   -2.2074982 
H    -3.1299909    6.4398435   -1.5852458 
H    -3.4664499    6.4697387   -3.3417012 
C    -3.2256682    1.6149166   -5.0993263 
H    -4.2421821    1.8144923   -5.4784570 
H    -2.5174313    1.9024529   -5.8992666 
H    -3.1237065    0.5290275   -4.9367532 
C     1.3652496    4.5985771    2.4068869 
C     1.0147117    3.3259181    2.8903167 
C     0.2775503    2.4739016    2.0491738 
C    -0.1063846    2.8822295    0.7535708 
C     0.3007584    4.1465851    0.2771986 
C     1.0222593    5.0231300    1.1089229 
H     1.9225080    5.2812695    3.0599145 
H    -0.0021359    1.4866945    2.4238454 
H     0.0616982    4.4589129   -0.7435804 
C     1.4234700    2.8647466    4.2717663 
H     0.6620525    2.1987050    4.7125725 
H     2.3712081    2.2988460    4.2217281 
H     1.5789816    3.7173091    4.9531499 
C     1.4157964    6.4032362    0.6315454 
H     1.0015295    6.6196575   -0.3654231 
H     1.0575575    7.1770077    1.3337026 
H     2.5149022    6.5025137    0.5718674 
