86
Energy =
C     1.7656825    1.4809467   -1.8047131 
C     0.7084265    2.3559880   -1.4816013 
C     0.5078675    2.8289164   -0.1404695 
H    -0.0194405    2.6306588   -2.2560406 
Pd    0.2048097    0.6279611   -0.1713473 
P    -0.1315393    0.3826710    2.1689179 
P    -0.2742137   -1.5697520   -1.2212941 
H     2.5192025    1.3029023   -1.0218923 
H     1.4070413    2.9522610    0.4781354 
C     2.8636522   -0.1093140   -5.6391263 
C     3.5020405   -0.5500497   -4.4674729 
C     3.1457661   -0.0042878   -3.2315877 
C     2.1290930    0.9790649   -3.1293043 
C     1.5251088    1.4396231   -4.3251436 
C     1.8865414    0.8972681   -5.5620848 
H     3.1420351   -0.5319024   -6.6097990 
H     4.2837639   -1.3145420   -4.5220119 
H     3.6555034   -0.3418475   -2.3220618 
H     0.7750801    2.2356619   -4.2892503 
H     1.4103442    1.2681311   -6.4755665 
C    -2.8458147    5.2652744    1.0397924 
C    -2.9988895    4.3071201    0.0235360 
C    -1.9142827    3.5158701   -0.3692839 
C    -0.6460625    3.6665243    0.2421672 
C    -0.5065276    4.6410040    1.2577354 
C    -1.5944024    5.4295848    1.6534791 
H    -3.6962247    5.8817154    1.3481708 
H    -3.9725340    4.1716998   -0.4589982 
H    -2.0564632    2.7488017   -1.1399590 
H     0.4716540    4.7868340    1.7304821 
H    -1.4628914    6.1817172    2.4384257 
Fe    0.5260250   -1.7360510    0.9488096 
C     0.8139632   -2.9237270   -0.6103864 
C     0.4577753   -3.7128322    0.5599452 
H    -0.4915422   -4.2440602    0.6785453 
C     1.6831611   -4.1374287    1.3678959 
H     1.8882408   -5.2210299    1.4101408 
C     2.8115468   -3.2182853    0.8138937 
H     3.7555566   -3.6877516    0.4892715 
C     2.0932872   -2.3681356   -0.2057451 
C     0.9204472   -1.0067607    2.7456612 
C     2.1624236   -1.0950720    2.0109446 
H     2.7050044   -0.2187081    1.6346797 
C     2.8479566   -2.4312019    2.1907448 
H     3.8130105   -2.4168053    2.7250884 
C     1.7157166   -3.3507184    2.7430525 
H     1.9422858   -3.9379252    3.6499689 
C     0.5153846   -2.4065413    2.8242537 
H     2.6204676   -1.6075199   -0.7931504 
H    -0.4420482   -2.7454402    3.2432261 
C    -1.8658351    0.1589754    2.8551102 
C    -1.8977855    0.9854941    4.1808681 
C    -0.4698140    1.3803273    4.5972065 
C     0.2819870    1.8087908    3.3236630 
H    -1.9899278   -0.9180315    3.0660949 
H    -2.4841626    1.9041656    3.9990765 
H    -2.4151939    0.4238508    4.9765646 
H    -0.4766364    2.1965446    5.3425805 
H     0.0567369    0.5223498    5.0580235 
H    -0.2249802    2.6827826    2.8729782 
C    -0.2896738   -1.5686422   -3.1068514 
C    -0.9898602   -2.9151479   -3.3816786 
C    -2.2271961   -3.0465017   -2.4408600 
C    -2.0653756   -2.1281942   -1.1925467 
H     0.7499349   -1.5487502   -3.4728713 
H    -1.2826293   -2.9876953   -4.4442603 
H    -0.2820570   -3.7379609   -3.1827994 
H    -3.1584429   -2.7812124   -2.9704098 
H    -2.3372968   -4.0945787   -2.1149504 
H    -2.5714719   -1.1622403   -1.3835258 
C    -2.6286690   -2.6931096    0.1189193 
H    -2.3630757   -3.7533519    0.2504918 
H    -2.2589975   -2.1374605    1.0006018 
C    -1.0777830   -0.3632641   -3.6464743 
H    -0.7692686    0.5752285   -3.1580068 
H    -0.8986236   -0.2574030   -4.7292014 
C    -2.9268110    0.6237777    1.8432405 
H    -3.9363742    0.5063194    2.2753177 
H    -2.8838380    0.0472568    0.9043280 
C     1.7723071    2.0920615    3.5034135 
H     1.9133543    2.9480200    4.1867754 
H     2.2632014    2.3428541    2.5467543 
H     2.2922675    1.2215973    3.9402454 
H    -2.7862811    1.6884567    1.5875530 
H    -2.1646485   -0.4820316   -3.4956716 
H    -3.7300686   -2.6237876    0.1216272 
