124
Energy =
C    -0.3570504    2.2836114   -2.4324532 
C    -1.2394450    1.3135662   -2.9949690 
C    -2.4499294    0.9672596   -2.3611731 
H    -0.9214971    0.7531457   -3.8832724 
Pd   -0.5720957    0.5517639   -1.0213022 
P    -1.1646138   -1.4112349    0.1233533 
P     1.1452272    1.1472667    0.4747227 
H    -0.8271536    3.0729577   -1.8306988 
H    -2.8037974    1.6373593   -1.5626190 
C     3.3473935    3.4568977   -4.2988139 
C     2.6287574    4.3630934   -3.5049926 
C     1.4282195    3.9704246   -2.8992873 
C     0.9233012    2.6601555   -3.0657436 
C     1.6636261    1.7564503   -3.8636187 
C     2.8556371    2.1530570   -4.4786136 
H     4.2833384    3.7631490   -4.7768594 
H     2.9980388    5.3845483   -3.3661747 
H     0.8625048    4.6917696   -2.3003693 
H     1.3086919    0.7279472   -3.9931544 
H     3.4116548    1.4383836   -5.0941839 
C    -5.5901867   -1.4922037   -3.9823964 
C    -5.6894266   -0.9642531   -2.6856457 
C    -4.6548208   -0.1768230   -2.1683047 
C    -3.4885373    0.0872324   -2.9242037 
C    -3.4074325   -0.4485976   -4.2318822 
C    -4.4478932   -1.2237288   -4.7541296 
H    -6.4025561   -2.0991128   -4.3947304 
H    -6.5827687   -1.1541539   -2.0816969 
H    -4.7499548    0.2545383   -1.1672504 
H    -2.5347998   -0.2414432   -4.8590248 
H    -4.3688040   -1.6195095   -5.7716834 
Fe    2.8134003   -1.3233299    2.7294123 
C     1.4386090   -0.0433273    1.8424185 
C     0.9368196   -1.4103830    1.9111642 
C     0.9231427   -1.8029085    3.2963557 
C     1.4283815   -0.7224949    4.0884039 
C     1.7705326    0.3472749    3.2022479 
C     3.8877902   -3.0199214    2.2807933 
C     4.4625413   -1.8870199    1.6183569 
C     4.8279895   -0.9225692    2.6178053 
C     4.4815738   -1.4629015    3.8985355 
C     3.8980264   -2.7578210    3.6906210 
C     0.3845324   -2.2514898    0.7874333 
H     0.6170121   -2.7824537    3.6696670 
H     1.5790809   -0.7328152    5.1695607 
H     2.1943926    1.3054238    3.5065384 
H     3.5061897   -3.9242880    1.8034799 
H     4.6158879   -1.7849020    0.5437051 
H     5.3013258    0.0435776    2.4406596 
H     4.6133562   -0.9666138    4.8618038 
H     3.5066267   -3.4165739    4.4682547 
H     1.3807061    2.7781448    2.2396391 
C    -1.1549468    3.6054800    3.0338586 
C    -0.7478888    2.4086570    2.1564978 
C     0.6053093    2.6579433    1.4599601 
C     0.5635398    3.9598996    0.6388529 
C     0.1736837    5.1541149    1.5304400 
C    -1.1743873    4.9149388    2.2294219 
H    -0.4354090    3.6982742    3.8709828 
H    -2.1437881    3.4128251    3.4881756 
H    -1.5175478    2.2362200    1.3776590 
H    -0.6974366    1.4914002    2.7691558 
H     1.5338003    4.1511801    0.1491289 
H    -0.1871736    3.8537212   -0.1641354 
H     0.9628321    5.3119164    2.2917442 
H     0.1363558    6.0742208    0.9199384 
H    -1.9753848    4.8614053    1.4651139 
H    -1.4229916    5.7665787    2.8871563 
H     2.5261242    2.4217887   -0.9992146 
C     4.7312244    0.7708435   -1.6818593 
C     3.3671676    0.4326956   -1.0576735 
C     2.7826604    1.6243437   -0.2759771 
C     3.7810970    2.1714262    0.7641524 
C     5.1364584    2.5068691    0.1130703 
C     5.7228451    1.2985530   -0.6335473 
H     4.5841742    1.5395323   -2.4630855 
H     5.1379838   -0.1239060   -2.1876902 
H     3.4716929   -0.4162753   -0.3594332 
H     2.6540356    0.1235064   -1.8428560 
H     3.3757046    3.0725535    1.2576508 
H     3.9191112    1.4049247    1.5489264 
H     4.9956756    3.3424921   -0.6001170 
H     5.8387299    2.8651912    0.8875389 
H     5.9588358    0.4953998    0.0916401 
H     6.6775666    1.5742233   -1.1156995 
H    -1.4566465   -0.4153417    2.2233884 
C    -3.1739865   -1.7091405    3.8776158 
C    -2.5634822   -2.2315562    2.5631213 
C    -2.1705540   -1.0460005    1.6570980 
C    -3.4093413   -0.1800851    1.3486352 
C    -4.0537338    0.3337176    2.6494741 
C    -4.3987765   -0.8197750    3.6061388 
H    -2.4046161   -1.1299125    4.4255834 
H    -3.4519204   -2.5608122    4.5241051 
H    -3.3128240   -2.8581471    2.0443736 
H    -1.6931082   -2.8753276    2.7763926 
H    -3.1268430    0.6677128    0.6981954 
H    -4.1455677   -0.7868771    0.7870022 
H    -3.3467472    1.0255912    3.1476308 
H    -4.9578537    0.9226388    2.4116186 
H    -5.2006994   -1.4378619    3.1560986 
H    -4.8029383   -0.4217359    4.5538182 
H    -3.0976378   -2.3215714   -0.9258171 
C    -2.9317679   -5.0772132   -1.1622878 
C    -2.0641174   -4.1338868   -0.3061972 
C    -2.0569704   -2.7050925   -0.9004171 
C    -1.5438988   -2.7496312   -2.3594620 
C    -2.4144474   -3.6884578   -3.2121510 
C    -2.4576885   -5.1070436   -2.6233799 
H    -3.9841649   -4.7335639   -1.1223841 
H    -2.9122632   -6.0917415   -0.7251420 
H    -1.0275070   -4.5227876   -0.2890343 
H    -2.4228738   -4.1360729    0.7347566 
H    -1.5304692   -1.7339534   -2.7888014 
H    -0.5000059   -3.1125175   -2.3722274 
H    -3.4400849   -3.2781973   -3.2582792 
H    -2.0350854   -3.7065357   -4.2498495 
H    -1.4460947   -5.5570903   -2.6694412 
H    -3.1186656   -5.7537200   -3.2275728 
H     0.0615922   -3.2092789    1.2312903 
C     1.3696882   -2.5414364   -0.3592955 
H     1.0037357   -3.3584111   -1.0015023 
H     1.5250348   -1.6514138   -0.9907365 
H     2.3421314   -2.8365327    0.0621800 
