132
Energy =
C     2.1240719   -2.1038474    0.1042645 
C     1.8968378   -2.1898442    1.5049865 
C     0.7508935   -2.8359961    2.0312887 
H     2.5495333   -1.6278017    2.1838431 
Pd    0.1866519   -1.0953628    0.6465315 
P    -1.8422080   -0.3078300    1.5130350 
P     0.2115542    0.2742943   -1.2363935 
H     1.6855507   -2.8935511   -0.5215476 
H     0.2520969   -3.5700423    1.3802488 
C     5.4906826   -0.1406395   -1.7266894 
C     4.7152630   -1.0584756   -2.4498987 
C     3.6127393   -1.6765593   -1.8471616 
C     3.2591436   -1.3875081   -0.5092634 
C     4.0257890   -0.4278142    0.1926092 
C     5.1338682    0.1785603   -0.4060862 
H     6.3653462    0.3271231   -2.1903140 
H     4.9767679   -1.3054513   -3.4842999 
H     3.0174970   -2.4001676   -2.4141919 
H     3.7503031   -0.1442697    1.2133540 
H     5.7196946    0.9110071    0.1585684 
C    -0.1722240   -3.3679545    6.2068335 
C    -0.8674867   -4.0819248    5.2190895 
C    -0.5517683   -3.8997331    3.8675776 
C     0.4525734   -2.9869419    3.4663646 
C     1.1444166   -2.2762283    4.4754771 
C     0.8419219   -2.4733648    5.8269702 
H    -0.4100427   -3.5140716    7.2652709 
H    -1.6498191   -4.7934273    5.5029743 
H    -1.0819103   -4.4802931    3.1055256 
H     1.9259812   -1.5588169    4.2054252 
H     1.3992397   -1.9227037    6.5918523 
Fe   -1.9251726    3.0651111   -1.8248485 
C    -1.3620366    1.1381197   -1.5685941 
C    -2.3475894    1.5307212   -0.5712402 
C    -3.5314677    1.9478244   -1.2837647 
C    -3.2914733    1.8209926   -2.6900776 
C    -1.9619535    1.3275614   -2.8738706 
C    -2.3395821    4.9344873   -1.1347854 
C    -1.0159375    4.5366706   -0.7421690 
C    -0.2629362    4.2646511   -1.9342673 
C    -1.1207913    4.4838430   -3.0616098 
C    -2.4051992    4.8981860   -2.5697928 
C     0.4971409   -0.6462122   -2.7915226 
C     0.2155839   -2.0254511   -2.7892881 
C     0.3730518   -2.8124598   -3.9415562 
C     0.8325656   -2.1775189   -5.1182352 
C     1.0677422   -0.7828418   -5.1711835 
C     0.8839561   -0.0308272   -3.9998177 
C     1.5244620    1.5272312   -0.9718803 
C     2.5383110    1.8563430   -1.8850911 
C     3.4685507    2.8752995   -1.6053031 
C     3.3830840    3.5395953   -0.3619558 
C     2.3862057    3.2138597    0.5885988 
C     1.4747359    2.2006975    0.2669864 
C    -2.2046344    1.4632013    0.9307020 
H    -4.4514426    2.3225557   -0.8341872 
H    -3.9900802    2.0876167   -3.4849343 
H    -1.4852306    1.1142361   -3.8302963 
H    -3.1577153    5.2062035   -0.4648713 
H    -0.6433176    4.4541526    0.2806908 
H     0.7742941    3.9303396   -1.9710459 
H    -0.8513678    4.3439250   -4.1100450 
H    -3.2828055    5.1263523   -3.1773853 
H    -0.1445721   -2.4979286   -1.8672660 
H     1.0286962    1.0528231   -4.0482583 
H     2.6333992    1.3166873   -2.8291545 
H     0.7100338    1.9290833    1.0038531 
H    -1.2668192    1.9782659    1.2041066 
H    -1.2881856   -1.1888735    3.6411696 
H    -4.2046802   -0.9093774    1.4779458 
C    -4.2715968   -3.7322134    1.3654599 
C    -3.1139059   -2.7818930    1.7165962 
C    -3.2963013   -1.3916433    1.0651204 
C    -3.4520581   -1.5466445   -0.4668358 
C    -4.6035541   -2.5049960   -0.8206027 
C    -4.4322123   -3.8789240   -0.1554559 
H    -5.2102718   -3.3371182    1.8009213 
H    -4.0956966   -4.7164090    1.8366983 
H    -2.1639989   -3.2095642    1.3400529 
H    -3.0093942   -2.7001382    2.8117344 
H    -3.6205608   -0.5704181   -0.9451645 
H    -2.5001706   -1.9386610   -0.8793014 
H    -5.5610003   -2.0549438   -0.4915272 
H    -4.6665596   -2.6086534   -1.9187791 
H    -3.5315646   -4.3752211   -0.5700199 
H    -5.2903742   -4.5329949   -0.3915541 
C    -2.8401386   -0.1784457    5.6748743 
C    -3.1022273   -0.1586455    4.1567005 
C    -1.7647010   -0.2228717    3.3846936 
C    -0.7813919    0.8924604    3.8180041 
C    -0.5813846    0.9150840    5.3443836 
C    -1.9210211    0.9798931    6.0947316 
H    -2.3670883   -1.1421627    5.9483372 
H    -3.8020758   -0.1271353    6.2157282 
H    -3.6593376    0.7584085    3.9010508 
H    -3.7483085   -1.0087250    3.8771153 
H     0.1895090    0.7454120    3.3050065 
H    -1.1653697    1.8799064    3.4977902 
H    -0.0456743   -0.0014316    5.6477919 
H     0.0623211    1.7708047    5.6179609 
H    -2.4240112    1.9434205    5.8772715 
H    -1.7456636    0.9556973    7.1851508 
C    -3.3668627    2.1730404    1.6440067 
H    -3.4958965    3.1758486    1.2013251 
H    -4.3177096    1.6250842    1.5342752 
H    -3.1651255    2.3049329    2.7167843 
C     0.0547375   -4.2891425   -3.9401181 
H    -0.3740894   -4.5928801   -4.9089631 
H     0.9652717   -4.8971105   -3.7805127 
H    -0.6564069   -4.5396503   -3.1356470 
C     1.4859562   -0.1369596   -6.4708346 
H     0.8969508   -0.5396879   -7.3114771 
H     1.3598237    0.9571554   -6.4302844 
H     2.5490443   -0.3438570   -6.6951388 
O     0.9640897   -2.9120523   -6.2745447 
C     2.2356332   -3.5460876   -6.4726806 
H     2.1730703   -4.0718652   -7.4368459 
H     3.0530097   -2.8008098   -6.5116421 
H     2.4525302   -4.2758960   -5.6695868 
C     4.5201191    3.2659621   -2.6159270 
H     5.4690396    2.7286793   -2.4346798 
H     4.1954887    3.0180545   -3.6394971 
H     4.7308354    4.3464125   -2.5564318 
C     2.3109573    3.9684345    1.8944279 
H     3.2246568    3.8248614    2.4986421 
H     2.2218121    5.0532602    1.7107897 
H     1.4478556    3.6358592    2.4948728 
O     4.2391398    4.5774403   -0.0656927 
C     5.5373998    4.2056046    0.4155653 
H     6.0641199    5.1440414    0.6435409 
H     5.4609784    3.5932544    1.3348731 
H     6.1095727    3.6413294   -0.3445327 
