112
Energy =
C     1.9754417   -0.0098942   -2.4107318 
C     2.1286149    1.3025668   -1.9091937 
C     2.7530328    1.5572803   -0.6530939 
H     1.6460099    2.1327003   -2.4415614 
Pd    0.9427076    0.2901080   -0.3655152 
P     0.7061164    0.6333923    1.9240450 
P    -1.1361518   -0.8632433   -0.4480071 
H     2.6628454   -0.7777470   -2.0231417 
H     3.5321088    0.8558753   -0.3215437 
C     0.2946411   -0.9310710   -6.2644111 
C    -0.1946203    0.1675817   -5.5371849 
C     0.3329496    0.4707131   -4.2780270 
C     1.3578438   -0.3225025   -3.7128092 
C     1.8326931   -1.4302941   -4.4512879 
C     1.3128021   -1.7260785   -5.7176070 
H    -0.1165724   -1.1644324   -7.2517690 
H    -0.9900228    0.7923134   -5.9571131 
H    -0.0582739    1.3274547   -3.7209110 
H     2.6274937   -2.0565135   -4.0301344 
H     1.7013063   -2.5830983   -6.2771734 
C     3.0296721    5.4915940    1.0803996 
C     1.9370843    5.1655541    0.2587190 
C     1.8391605    3.8913197   -0.3094589 
C     2.8317184    2.9119119   -0.0682777 
C     3.9256441    3.2569112    0.7532851 
C     4.0240172    4.5332342    1.3212848 
H     3.1039168    6.4885827    1.5266308 
H     1.1573744    5.9094148    0.0624899 
H     0.9741327    3.6473396   -0.9372026 
H     4.7056045    2.5144193    0.9482477 
H     4.8802357    4.7765224    1.9583090 
Fe    1.5316902   -2.6822808    2.1406388 
C     0.4721153   -1.0106839    2.6397513 
C    -0.3948986   -2.0475502    2.0962038 
C    -0.2486789   -3.1980352    2.9550594 
C     0.6939707   -2.8957473    3.9891332 
C     1.1465957   -1.5533161    3.7981397 
C     1.9712643   -4.2955493    0.9802538 
C     2.1682013   -3.0867388    0.2333629 
C     3.1470814   -2.2974742    0.9199729 
C     3.5558308   -3.0087553    2.0960033 
C     2.8297115   -4.2472188    2.1320928 
C    -0.7398135    1.6193753    2.4754164 
C    -0.9437226    2.8998889    1.9202858 
C    -2.0344712    3.6771828    2.3309112 
C    -2.9408662    3.1743456    3.2783804 
C    -2.7401943    1.9013293    3.8339403 
C    -1.6370327    1.1275036    3.4441341 
C     2.1081592    1.3542155    2.8749249 
C     1.9782097    2.5498046    3.6069361 
C     3.0723191    3.0577843    4.3229369 
C     4.2981637    2.3784339    4.3249098 
C     4.4333955    1.1869179    3.5950886 
C     3.3494029    0.6841504    2.8658859 
C    -1.4661495   -2.0084644    1.0241920 
H    -0.7623327   -4.1516345    2.8155029 
H     1.0380265   -3.5814010    4.7649864 
H     1.8800229   -1.0257535    4.4084227 
H     1.2807992   -5.1031461    0.7300137 
H     1.6600901   -2.8051757   -0.6857205 
H     3.5091777   -1.3223141    0.5925495 
H     4.2751438   -2.6664633    2.8420851 
H     2.9003793   -5.0086077    2.9107945 
H    -0.2417341    3.2871067    1.1746161 
H    -1.4724868    0.1415364    3.8914277 
H     1.0273641    3.0891832    3.6267457 
H     3.4481169   -0.2480785    2.3086271 
H    -1.4410051   -3.0073138    0.5518908 
C    -2.8596063   -1.8368324    1.6745502 
H    -2.9504335   -2.5308893    2.5278382 
H    -3.0085506   -0.8134038    2.0552437 
H    -3.6652814   -2.0697639    0.9609122 
H    -2.1812633    4.6756614    1.9060820 
H    -3.4392558    1.5117588    4.5814028 
H     2.9594755    3.9906610    4.8847609 
H     5.3867542    0.6480329    3.5904940 
H    -3.7993857    3.7785922    3.5896277 
H     5.1465534    2.7756742    4.8917690 
H    -1.6066557   -1.2405215   -2.7630749 
C    -3.1622988   -3.5234663   -3.1209699 
C    -2.8891337   -2.7359461   -1.8242227 
C    -1.5525807   -1.9584118   -1.9198950 
C    -0.4125610   -2.9550792   -2.2135880 
C    -0.6778980   -3.7533576   -3.5016052 
C    -2.0192827   -4.4975330   -3.4399144 
H    -3.2847885   -2.8084030   -3.9582574 
H    -4.1205024   -4.0647032   -3.0233000 
H    -2.8298368   -3.4535600   -0.9828724 
H    -3.7349567   -2.0675187   -1.6131627 
H     0.5433111   -2.4144768   -2.2972026 
H    -0.3209548   -3.6592078   -1.3624196 
H    -0.6830183   -3.0514323   -4.3559878 
H     0.1552538   -4.4579039   -3.6765445 
H    -1.9741819   -5.2770492   -2.6533893 
H    -2.2130675   -5.0211013   -4.3929531 
H    -2.3191918    0.9467803    0.5822711 
C    -4.6957179    1.5871800   -0.6430664 
C    -3.8672344    0.2949552   -0.7832192 
C    -2.3823814    0.5638454   -0.4540741 
C    -1.8493719    1.6697030   -1.4009628 
C    -2.6922014    2.9550632   -1.3361958 
C    -4.1811750    2.6806842   -1.5903520 
H    -4.6396625    1.9433855    0.4046526 
H    -5.7580550    1.3640177   -0.8484148 
H    -3.9505417   -0.0624772   -1.8266463 
H    -4.2908878   -0.4865909   -0.1349812 
H    -0.7930546    1.8934852   -1.1472826 
H    -1.8525417    1.2802212   -2.4372667 
H    -2.5744663    3.4048663   -0.3336876 
H    -2.2986271    3.6871637   -2.0651760 
H    -4.3238573    2.3504299   -2.6384428 
H    -4.7682582    3.6084972   -1.4682281 
