122
Energy =
C    -0.0238366   -0.3639475   -3.6071199 
C     0.2765955    0.9875985   -3.2800935 
C     1.5102893    1.3382015   -2.6789825 
H    -0.5074745    1.7473906   -3.3959803 
Pd    0.3029921   -0.0943371   -1.3784744 
P     1.0226257    0.7681249    0.6997243 
P    -0.8465674   -2.0092296   -0.5686010 
H     0.8273793   -1.0335198   -3.8033860 
H     2.3517887    0.6430587   -2.8212684 
C    -3.6983873   -1.3931043   -5.5838363 
C    -3.7173305   -0.5188256   -4.4849432 
C    -2.5289256   -0.1970913   -3.8232993 
C    -1.2980438   -0.7434498   -4.2478248 
C    -1.2926804   -1.6399336   -5.3396182 
C    -2.4832738   -1.9536223   -6.0074256 
H    -4.6292786   -1.6454038   -6.1018284 
H    -4.6659372   -0.0990940   -4.1343695 
H    -2.5481045    0.4522349   -2.9423301 
H    -0.3460016   -2.0777074   -5.6761120 
H    -2.4626904   -2.6384158   -6.8615786 
C     2.7082342    5.3649648   -1.7543513 
C     1.3496234    5.0124795   -1.6907295 
C     0.9487928    3.7047279   -1.9823508 
C     1.8980637    2.7175221   -2.3335624 
C     3.2611687    3.0835000   -2.3874834 
C     3.6592649    4.3972163   -2.1086057 
H     3.0254070    6.3840551   -1.5143767 
H     0.6020162    5.7629359   -1.4127963 
H    -0.1104611    3.4362784   -1.9318203 
H     4.0129959    2.3318485   -2.6495292 
H     4.7196633    4.6638353   -2.1520847 
Fe   -3.5248657    2.0833155    1.0467538 
C    -1.5890705    1.6659807    0.5434395 
C    -2.3370256    0.4339768    0.7582777 
C    -3.4576855    0.4508702   -0.1529355 
H    -4.2316116   -0.3113382   -0.2253012 
C    -3.4061880    1.6584311   -0.9247603 
H    -4.1394979    1.9742150   -1.6693342 
C    -2.2580880    2.4034383   -0.5004923 
H    -1.9617081    3.3884130   -0.8662108 
C    -4.8426545    3.6388284    1.1308089 
H    -5.0823730    4.3036613    0.2987905 
C    -3.7893453    3.8298208    2.0858114 
H    -3.1045289    4.6793413    2.1185013 
C    -3.8040232    2.7142201    2.9886103 
H    -3.1409536    2.5768895    3.8442297 
C    -4.8605090    1.8298801    2.5855981 
H    -5.1272116    0.8833656    3.0593329 
C    -5.5034656    2.4028904    1.4395242 
H    -6.3322205    1.9622103    0.8822141 
C    -1.9412371   -0.6727046    1.6814529 
C    -1.2628217   -1.8397351    1.2223885 
C    -0.8737671   -2.8302013    2.1462841 
H    -0.3151625   -3.7052976    1.8042043 
C    -1.1500950   -2.6897575    3.5116236 
H    -0.8258028   -3.4651550    4.2127659 
C    -1.8305072   -1.5549693    3.9703408 
H    -2.0468635   -1.4319978    5.0352220 
C    -2.2169864   -0.5654126    3.0592527 
H    -2.7504295    0.3231049    3.4018235 
C     1.4388447   -0.3996376    2.0804749 
C     1.2912588   -0.1166634    3.4480033 
H     0.8260465    0.8062650    3.7884117 
C     1.7554452   -1.0247661    4.4131079 
C     2.3889566   -2.2136975    4.0385029 
H     2.7558939   -2.9105365    4.7954130 
C     2.5436932   -2.4940371    2.6740307 
C     2.0690165   -1.6018055    1.7054463 
H     2.1855387   -1.8568519    0.6493731 
C     2.6407828    1.6655084    0.6543813 
C     2.8170523    3.0006852    1.0556739 
H     1.9786859    3.6132598    1.3919229 
C     4.0897829    3.5866790    1.0057178 
C     5.1994173    2.8602351    0.5523927 
H     6.1871738    3.3254905    0.5017944 
C     5.0172845    1.5380467    0.1295177 
C     3.7505544    0.9426814    0.1815957 
H     3.6375286   -0.0915032   -0.1597595 
C    -0.2619385    2.0743713    1.1579507 
H     0.1113115    2.9075192    0.5326720 
C    -0.3476975    2.5729934    2.6107883 
H    -0.9645666    3.4850734    2.6243751 
H    -0.8392672    1.8303330    3.2555731 
H     0.6414235    2.8205909    3.0316107 
C     4.2809215    5.0238316    1.4445028 
F     5.0882568    5.6932747    0.5852535 
F     3.1024417    5.6913799    1.5017682 
F     4.8495848    5.0958485    2.6675522 
C     6.1557081    0.7649925   -0.4986235 
F     6.0553461    0.8022914   -1.8592296 
F     7.3601160    1.2676462   -0.1694767 
F     6.1272582   -0.5399209   -0.1426465 
C     1.5581449   -0.6724466    5.8723565 
F     2.0026570   -1.6406750    6.6970485 
F     2.2001396    0.4763613    6.1876211 
F     0.2401360   -0.4698094    6.1458733 
C     3.1560435   -3.8029809    2.2288925 
F     3.9335654   -3.6394336    1.1318931 
F     3.9090373   -4.3666787    3.1939226 
F     2.1857713   -4.7001936    1.8978645 
C     1.9775037   -5.6492261   -1.2610115 
C     2.4117125   -4.3510109   -1.5606434 
C     1.5643117   -3.2606015   -1.3212371 
C     0.2798369   -3.4550817   -0.7746225 
C    -0.1591143   -4.7693799   -0.5029285 
C     0.6919162   -5.8560377   -0.7363224 
H     2.6381857   -6.5029573   -1.4426897 
H     3.4100671   -4.1844610   -1.9768245 
H     1.8918450   -2.2414569   -1.5708349 
H    -1.1724608   -4.9427781   -0.1253224 
H     0.3474239   -6.8710040   -0.5134975 
C    -4.6424475   -3.9114515   -2.4784081 
C    -3.4267172   -3.8644442   -3.1779696 
C    -2.3026386   -3.2708813   -2.5937330 
C    -2.3836988   -2.7109036   -1.3019544 
C    -3.5956373   -2.7934154   -0.5889053 
C    -4.7209297   -3.3863673   -1.1803981 
H    -5.5219800   -4.3752954   -2.9366800 
H    -3.3499014   -4.2914275   -4.1822960 
H    -1.3524028   -3.2644282   -3.1340190 
H    -3.6565993   -2.4239538    0.4391472 
H    -5.6568330   -3.4517333   -0.6155706 
