112
Energy =
C     2.6844129   -0.0056124   -2.0906805 
C     1.8496635    1.0134203   -2.6104575 
C     1.4862477    2.1427976   -1.8206197 
H     1.3569067    0.8602218   -3.5783967 
Pd    0.7971222    0.2510422   -0.8365630 
P    -0.8710044    1.1362872    0.5303297 
P     0.5145172   -1.9616484   -0.2046207 
H     3.3373051    0.2707609   -1.2490594 
H     2.1982103    2.4553392   -1.0413011 
C     4.0502294   -3.5094952   -4.1755249 
C     4.5915639   -3.1581951   -2.9303893 
C     4.1183183   -2.0274233   -2.2539877 
C     3.0942676   -1.2241550   -2.8073169 
C     2.5368969   -1.6100775   -4.0486921 
C     3.0166794   -2.7337745   -4.7267035 
H     4.4267584   -4.3856445   -4.7134228 
H     5.3930870   -3.7594521   -2.4887167 
H     4.5533341   -1.7509806   -1.2873177 
H     1.7248612   -1.0272889   -4.4941123 
H     2.5782794   -3.0108587   -5.6905559 
C    -1.2687783    5.2458434   -2.9939933 
C    -1.3472586    3.9788352   -3.5970738 
C    -0.4533276    2.9655798   -3.2356050 
C     0.5498792    3.1956703   -2.2652625 
C     0.6319655    4.4841376   -1.6874104 
C    -0.2703266    5.4957138   -2.0414176 
H    -1.9749755    6.0339787   -3.2739911 
H    -2.1148755    3.7793964   -4.3521295 
H    -0.5483663    1.9790965   -3.7010872 
H     1.4217861    4.6946770   -0.9572415 
H    -0.1870604    6.4840120   -1.5773311 
Fe   -0.7733238   -0.8610769    3.5558261 
C    -1.4661550    0.0331955    1.8427878 
C    -1.5637305   -1.4237505    1.7578230 
C    -2.3966934   -1.8531008    2.8573802 
C    -2.7984848   -0.7082891    3.6153438 
C    -2.2192707    0.4486593    3.0093021 
C     0.4260696    0.1170943    4.8925684 
C    -0.3853376   -0.8635997    5.5544017 
C    -0.0857696   -2.1460559    4.9824077 
C     0.9127013   -1.9599888    3.9707663 
C     1.2258497   -0.5619951    3.9114938 
C    -1.1396070   -2.3475888    0.6327259 
H    -2.6595766   -2.8836441    3.0956841 
H    -3.4047186   -0.7221838    4.5228095 
H    -2.3325065    1.4732220    3.3616076 
H     0.4297277    1.1878831    5.1041984 
H    -1.1190373   -0.6660996    6.3380676 
H    -0.5521294   -3.0939572    5.2576852 
H     1.3561222   -2.7446987    3.3600779 
H     1.9485084   -0.0989679    3.2412406 
H    -2.1344184    2.5538137   -0.9154044 
C    -4.8655660    2.1558531   -0.5680189 
C    -3.7052630    1.7079148    0.3417757 
C    -2.3997768    1.5719909   -0.4718666 
C    -2.6060171    0.5685214   -1.6278256 
C    -3.7696843    0.9963016   -2.5384349 
C    -5.0700372    1.1815613   -1.7394345 
H    -4.6474489    3.1679163   -0.9623535 
H    -5.7910047    2.2406442    0.0293125 
H    -3.9475212    0.7270504    0.7925001 
H    -3.5844120    2.4149886    1.1786074 
H    -1.6703361    0.4692711   -2.2091609 
H    -2.8263166   -0.4292484   -1.1979541 
H    -3.5006199    1.9507608   -3.0304272 
H    -3.9091652    0.2503636   -3.3420721 
H    -5.3969583    0.2001000   -1.3424405 
H    -5.8783303    1.5396507   -2.4015472 
H     0.0785652    3.2476128    0.3236874 
C     1.6592013    3.8240181    2.5274303 
C     0.9751461    2.5023899    2.1391299 
C    -0.2594085    2.7472817    1.2501583 
C    -1.2603631    3.7133047    1.9180138 
C    -0.5543468    5.0343049    2.2839503 
C     0.6660424    4.7944707    3.1868181 
H     2.0829035    4.2952872    1.6181679 
H     2.5097578    3.6196745    3.2025944 
H     0.6487079    1.9641682    3.0447313 
H     1.6872169    1.8361208    1.6140222 
H    -2.1046146    3.9225358    1.2397833 
H    -1.6785266    3.2635973    2.8365755 
H    -0.2309125    5.5381165    1.3516656 
H    -1.2744039    5.7124725    2.7756999 
H     0.3270235    4.3681177    4.1521503 
H     1.1637089    5.7517462    3.4230864 
H    -1.8189916   -2.1383966   -0.2186582 
C    -1.2933538   -3.8347380    0.9921144 
H    -2.3551516   -4.0711811    1.1737273 
H    -0.9508951   -4.4793185    0.1657454 
H    -0.7255597   -4.0795710    1.9049861 
C     0.0122307   -4.5543278   -4.0448349 
C    -0.8385735   -3.4704649   -3.7771331 
C    -0.6541648   -2.7035408   -2.6205395 
C     0.3766096   -3.0188189   -1.7056563 
C     1.2478929   -4.0844236   -2.0005900 
C     1.0587390   -4.8488592   -3.1612720 
H    -0.1320585   -5.1566795   -4.9475824 
H    -1.6472191   -3.2191692   -4.4714120 
H    -1.3129469   -1.8491981   -2.4309788 
H     2.0903494   -4.3123660   -1.3435924 
H     1.7467684   -5.6721887   -3.3775024 
C     4.1243499   -3.5012851    2.2972283 
C     3.1394200   -4.4178432    1.8963695 
C     2.0362046   -3.9895838    1.1449594 
C     1.9059460   -2.6289768    0.7841411 
C     2.9052932   -1.7199693    1.1883628 
C     4.0059848   -2.1500204    1.9411707 
H     4.9817174   -3.8411110    2.8870230 
H     3.2289163   -5.4740864    2.1702457 
H     1.2851193   -4.7213752    0.8395984 
H     2.8030908   -0.6633813    0.9144549 
H     4.7685038   -1.4290606    2.2531588 
