104
Energy =
C    -1.2927618   -2.1309883   -2.5317117 
C     0.1295961   -2.2044660   -2.5320730 
C     0.8609364   -2.7718056   -1.4660886 
H     0.6786427   -1.7044204   -3.3390019 
Pd   -0.3937314   -0.9657118   -0.7861586 
P     1.2817038   -0.0665685    0.5638471 
P    -2.1709707    0.3429036    0.0846931 
H    -1.8381851   -2.9046437   -1.9729281 
H     0.3116460   -3.4227697   -0.7688432 
C    -3.4696629   -0.3765421   -5.8133708 
C    -2.1887751    0.1000620   -5.4877806 
C    -1.4780423   -0.4609470   -4.4225719 
C    -2.0270310   -1.5186937   -3.6585230 
C    -3.3091195   -1.9985964   -4.0102364 
C    -4.0245340   -1.4301465   -5.0720746 
H    -4.0288739    0.0687338   -6.6424181 
H    -1.7474760    0.9214293   -6.0620210 
H    -0.4935589   -0.0563224   -4.1626204 
H    -3.7438607   -2.8337776   -3.4499512 
H    -5.0165346   -1.8175325   -5.3264368 
C     5.1109959   -3.4223112   -1.3857376 
C     4.2978815   -3.8706999   -0.3342783 
C     2.9186882   -3.6360618   -0.3668915 
C     2.3230605   -2.9372606   -1.4428617 
C     3.1597938   -2.4784577   -2.4876426 
C     4.5344815   -2.7265773   -2.4613269 
H     6.1885333   -3.6160218   -1.3706432 
H     4.7359054   -4.4171703    0.5073018 
H     2.2885909   -4.0078186    0.4469042 
H     2.7369573   -1.9307015   -3.3344381 
H     5.1627001   -2.3712720   -3.2840442 
Fe    0.9796485    2.8080973    2.7883218 
C     0.8776168    1.6257702    1.1177096 
C    -0.4526202    2.0810641    1.4958513 
C    -0.4197977    3.5218362    1.5113164 
C     0.8888898    3.9610386    1.1208311 
C     1.6955122    2.8011666    0.8910058 
C     2.1833649    3.9231964    4.0008754 
C     0.8113278    4.0498854    4.4012694 
C     0.3257443    2.7434534    4.7368930 
C     1.3923861    1.8058184    4.5361036 
C     2.5431994    2.5380225    4.0840044 
C     2.7708859    0.2287829   -0.4741667 
C     4.0670821   -0.2077157   -0.1493295 
C     5.1444952    0.1075085   -0.9916197 
C     4.9372770    0.8418482   -2.1664723 
C     3.6392349    1.2523253   -2.5127230 
C     2.5612861    0.9461885   -1.6744300 
C     1.8126390   -1.0788451    1.9960585 
C     1.1467960   -2.2910572    2.2640098 
C     1.5236296   -3.0792655    3.3604281 
C     2.5752010   -2.6651899    4.1918675 
C     3.2415178   -1.4564576    3.9324442 
C     2.8574073   -0.6621347    2.8440121 
C    -1.6633439    1.2046604    1.7253352 
H    -1.2480792    4.1720642    1.7991372 
H     1.2260729    4.9973835    1.0608831 
H     2.7432461    2.7923860    0.5877532 
H     2.8314089    4.7353078    3.6661142 
H     0.2324786    4.9751433    4.4247481 
H    -0.6836970    2.5119601    5.0817452 
H     1.3400774    0.7277758    4.6939698 
H     3.5261356    2.1266468    3.8509993 
H     4.2434537   -0.8129900    0.7431981 
H     1.5501586    1.2763507   -1.9395507 
H     0.3231185   -2.6068676    1.6128157 
H     3.3594184    0.2903026    2.6544739 
H     6.1490582   -0.2395554   -0.7294779 
H     3.4674414    1.8163563   -3.4354619 
H     0.9960916   -4.0165101    3.5656285 
H     4.0570282   -1.1276216    4.5849304 
C    -3.6635141   -0.7791335    0.5748937 
C    -2.6772294    1.8134223   -1.0559948 
C    -4.4626746   -1.2258149   -0.6690469 
H    -5.0773275   -2.1008764   -0.3898465 
H    -5.1464281   -0.4478504   -1.0342559 
H    -3.8036733   -1.5248890   -1.4966401 
C    -1.3568217    2.3150273   -1.6930260 
H    -1.5818857    3.1840107   -2.3383883 
H    -0.6112923    2.6305058   -0.9477073 
H    -0.9130697    1.5265751   -2.3259326 
C    -3.0628373   -2.0723604    1.1873709 
H    -3.8925206   -2.7329248    1.4994645 
H    -2.4637348   -2.6142510    0.4333286 
H    -2.4247199   -1.8990301    2.0638309 
C    -4.6310877   -0.0866450    1.5581203 
H    -5.4571787   -0.7824808    1.7942357 
H    -4.1585364    0.1958420    2.5118083 
H    -5.0798055    0.8164211    1.1117274 
C    -3.6050333    1.3578206   -2.2024897 
H    -3.6016284    2.1447686   -2.9779929 
H    -3.2684430    0.4266730   -2.6789898 
H    -4.6449571    1.2338753   -1.8663601 
C    -3.3784631    2.9573616   -0.2949497 
H    -3.6826304    3.7280965   -1.0266593 
H    -4.2914939    2.6134648    0.2194913 
H    -2.7212113    3.4463725    0.4374272 
H     5.7821063    1.0847822   -2.8191822 
H     2.8726383   -3.2812534    5.0466961 
H    -2.5117765    1.8618019    1.9808972 
C    -1.4366639    0.2315388    2.8965088 
H    -1.0516863    0.8121258    3.7461883 
H    -2.3615461   -0.2698240    3.2144491 
H    -0.6846612   -0.5361256    2.6594491 
