134
Energy =
C    -1.3627286    1.1647745   -2.7859285 
C    -0.3024395    2.1019852   -2.6399694 
C     1.0458869    1.6770699   -2.6430360 
H    -0.5348414    3.1480584   -2.4076834 
Pd   -0.1704976    0.7186709   -0.9173549 
P     1.6250956    0.7002752    0.6051163 
P    -1.8293064   -0.6243082    0.0335545 
H    -1.1221834    0.2189569   -3.2921505 
H     1.2482978    0.6865240   -3.0757483 
C    -5.5743763    2.0441603   -2.7865465 
C    -4.6684257    3.0003944   -2.2981157 
C    -3.2964428    2.7350956   -2.2950292 
C    -2.7953492    1.5060033   -2.7836899 
C    -3.7171769    0.5643762   -3.2948138 
C    -5.0918790    0.8278061   -3.2908044 
H    -6.6492741    2.2522042   -2.7806308 
H    -5.0370956    3.9555567   -1.9099329 
H    -2.6086339    3.4879911   -1.8952826 
H    -3.3443189   -0.3830722   -3.6970433 
H    -5.7874848    0.0799699   -3.6861055 
C     4.5384531    4.1793716   -2.5313227 
C     4.6537837    2.7946632   -2.7220406 
C     3.5079616    1.9917564   -2.7375002 
C     2.2224691    2.5537117   -2.5556276 
C     2.1248812    3.9492428   -2.3471856 
C     3.2693714    4.7506298   -2.3403996 
H     5.4316184    4.8124270   -2.5282664 
H     5.6381631    2.3383003   -2.8690017 
H     3.6044378    0.9125303   -2.8926271 
H     1.1479954    4.4170419   -2.1944675 
H     3.1725743    5.8294963   -2.1827088 
Fe    0.6298304   -4.1532240    2.1101858 
C    -0.0596542   -2.4857003    1.1715852 
C     1.2260962   -2.2128218    1.7994053 
C     2.1814804   -3.1535139    1.2650362 
H     3.2367307   -3.1918230    1.5384698 
C     1.5197231   -3.9737046    0.2957704 
H     1.9740505   -4.7894284   -0.2697112 
C     0.1426441   -3.5757865    0.2432252 
H    -0.6374116   -4.0445381   -0.3581770 
C    -0.9460086   -5.0020843    3.0943008 
H    -1.9946473   -4.7127666    2.9991988 
C    -0.0060384   -4.4660156    4.0368533 
H    -0.2230742   -3.7112159    4.7949073 
C     1.2617895   -5.1047025    3.8130495 
H     2.1867265   -4.9190852    4.3624400 
C     1.1019575   -6.0383930    2.7352930 
H     1.8853357   -6.6699556    2.3122146 
C    -0.2623713   -5.9763394    2.2919052 
H    -0.6960980   -6.5499877    1.4705199 
C     1.5542324   -1.1420453    2.7798469 
C     1.6358519    0.2262724    2.3984222 
C     1.8596781    1.2095537    3.3850904 
H     1.9101846    2.2639853    3.1017306 
C     2.0490322    0.8547385    4.7274241 
H     2.2181838    1.6357374    5.4758263 
C     2.0512312   -0.4965403    5.0934230 
H     2.2309914   -0.7902295    6.1328039 
C     1.8040395   -1.4759383    4.1238111 
H     1.7788165   -2.5324536    4.3966173 
C    -3.2570819    0.3130822    0.6939280 
C    -4.4085801   -0.3035561    1.2316882 
H    -4.4960772   -1.3956621    1.2513743 
C    -5.4482269    0.4689862    1.7734258 
C    -5.3059410    1.8732993    1.7862177 
H    -6.1141494    2.4833206    2.2081180 
C    -4.1592303    2.5117085    1.2888481 
C    -3.1389831    1.7111115    0.7403178 
H    -2.2328114    2.1794216    0.3367847 
C    -2.4186416   -1.7536380   -1.2991391 
C    -1.4360414   -2.2464507   -2.1812120 
H    -0.3881674   -1.9567631   -2.0334264 
C    -1.7724090   -3.0955404   -3.2498078 
C    -3.1270381   -3.4373876   -3.4250207 
H    -3.4077284   -4.0900759   -4.2606677 
C    -4.1330111   -2.9532510   -2.5669692 
C    -3.7639180   -2.1087046   -1.5023210 
H    -4.5477048   -1.6941497   -0.8634026 
C    -1.3899300   -1.8263027    1.4431027 
H    -2.1649628   -2.6093635    1.3563507 
C    -1.5158003   -1.1440589    2.8167074 
H    -1.0806737   -1.8050266    3.5835512 
H    -0.9804595   -0.1823725    2.8566888 
H    -2.5710500   -0.9561138    3.0654372 
C    -0.7035743   -3.5876471   -4.2017467 
C    -5.5823770   -3.3292468   -2.7836041 
C    -6.6956355   -0.1789784    2.3325094 
C    -3.9995727    4.0143449    1.3520018 
C     2.6644107    5.1925761    1.0326218 
C     3.7329554    4.2946997    0.8582082 
C     3.4454984    2.9260755    0.6886939 
C     2.1184439    2.4718132    0.7004975 
C     1.0637393    3.3959390    0.8569602 
C     1.3221136    4.7661264    1.0258368 
H     2.8829270    6.2600379    1.1601823 
H     4.2678111    2.2229310    0.5302731 
H     0.0264269    3.0364741    0.8570037 
C     5.0737190   -1.9350179   -0.9997544 
C     5.2973709   -1.1853352    0.1750459 
C     4.2564297   -0.3756561    0.6609978 
C     3.0323577   -0.2922241   -0.0323953 
C     2.8331571   -1.0636986   -1.1875774 
C     3.8480578   -1.9004152   -1.6866522 
H     5.8765089   -2.5804810   -1.3769787 
H     4.3929873    0.1724783    1.5999540 
H     1.8551171   -1.0376609   -1.6822120 
H    -6.6256393   -1.2789986    2.3132015 
H    -6.8735832    0.1359234    3.3761791 
H    -7.5863761    0.1158392    1.7481546 
H    -3.3653436    4.3047535    2.2108176 
H    -3.5139482    4.4027195    0.4398599 
H    -4.9708205    4.5221261    1.4694001 
H    -0.9957143   -4.5340962   -4.6857249 
H    -0.5240345   -2.8480830   -5.0051917 
H     0.2557262   -3.7453444   -3.6789561 
H    -5.8322706   -3.3636086   -3.8578167 
H    -5.7943273   -4.3318287   -2.3667612 
H    -6.2613491   -2.6130275   -2.2914652 
C     5.1643351    4.7818963    0.8688160 
H     5.8282585    4.0839944    0.3327937 
H     5.2542847    5.7758239    0.3989668 
H     5.5378657    4.8726637    1.9062420 
C     0.1902892    5.7606095    1.1655667 
H     0.1155449    6.3995034    0.2655623 
H    -0.7796452    5.2530923    1.3011009 
H     0.3502226    6.4332141    2.0263571 
C     6.6309892   -1.2477109    0.8865208 
H     6.5538760   -0.8785257    1.9225135 
H     7.0249084   -2.2782207    0.9126419 
H     7.3812761   -0.6252881    0.3635457 
C     3.5911521   -2.7699042   -2.8975164 
H     2.9761683   -3.6461470   -2.6174640 
H     3.0371274   -2.2197720   -3.6784070 
H     4.5289344   -3.1449089   -3.3385029 
