116
Energy =
C    -3.6028175    0.1650164   -0.2574700 
C    -3.0067459    0.7739337   -1.4090270 
C    -2.3394837   -0.0172480   -2.3605958 
H    -3.0163830    1.8664629   -1.5166329 
Pd   -1.3648602   -0.1130834   -0.2039393 
P     0.8736383    0.4876620   -0.6644076 
P    -0.9448804   -1.3573811    1.8004387 
H    -4.0101039   -0.8404815   -0.4057386 
H    -2.4354632   -1.1087674   -2.2469660 
C    -5.5722151    2.4514639    2.8147672 
C    -4.4473052    2.9809858    2.1606053 
C    -3.8073948    2.2483064    1.1556547 
C    -4.2735451    0.9646647    0.7841185 
C    -5.4134203    0.4501980    1.4442767 
C    -6.0553074    1.1857339    2.4482297 
H    -6.0713445    3.0247606    3.6025471 
H    -4.0655280    3.9687300    2.4396260 
H    -2.9192368    2.6638658    0.6660476 
H    -5.7981625   -0.5357785    1.1611299 
H    -6.9377902    0.7703447    2.9457958 
C    -0.7919872    1.1159208   -6.2023837 
C    -0.5946145   -0.1805072   -5.7016798 
C    -1.1144292   -0.5319058   -4.4515147 
C    -1.8258587    0.4068005   -3.6663488 
C    -2.0478976    1.6980535   -4.2030580 
C    -1.5312601    2.0479275   -5.4535295 
H    -0.3904879    1.3942921   -7.1820610 
H    -0.0406177   -0.9193669   -6.2897032 
H    -0.9673644   -1.5461242   -4.0638752 
H    -2.6398910    2.4300724   -3.6451956 
H    -1.7137673    3.0502524   -5.8542470 
Fe    3.8019150   -0.6750600    1.2667624 
C     2.0342866    0.2369049    0.7226266 
C     1.8265991   -0.7293296    1.7899605 
C     2.6566767   -0.3385949    2.9012763 
C     3.3767984    0.8474346    2.5395404 
C     3.0171819    1.1928708    1.1976344 
C     5.0299949   -2.1494901    1.9539384 
C     4.4402134   -2.5459609    0.7066231 
C     4.8222158   -1.5809192   -0.2821379 
C     5.6320401   -0.5809683    0.3468623 
C     5.7657769   -0.9356262    1.7313272 
C     0.8939230   -1.9126490    1.7327514 
H     2.7617358   -0.8732621    3.8461864 
H     4.1072132    1.3674577    3.1618843 
H     3.4075789    2.0436227    0.6373806 
H     4.9294426   -2.6670369    2.9099053 
H     3.8274643   -3.4325848    0.5323933 
H     4.5537154   -1.6123467   -1.3357133 
H     6.0682814    0.2934186   -0.1391649 
H     6.3117876   -0.3712626    2.4894058 
H     0.9359999   -2.2982427    0.6983929 
C     1.3679057   -3.0372672    2.6753311 
H     2.4498646   -3.1721546    2.5163154 
H     1.2127104   -2.8029568    3.7375275 
H     0.8752620   -3.9952409    2.4588535 
C    -1.9129959   -3.0271615    1.7714824 
C    -1.2328220   -0.3902043    3.4296625 
C    -3.3914960   -2.7816870    1.3963365 
H    -3.9477346   -3.7277120    1.5273404 
H    -3.8777443   -2.0139370    2.0153835 
H    -3.4817370   -2.4888945    0.3401341 
C    -2.7418322   -0.3394013    3.7442634 
H    -2.9010125    0.3680503    4.5781393 
H    -3.3281397    0.0263909    2.8886683 
H    -3.1399169   -1.3168540    4.0610664 
C    -1.3002093   -3.8789506    0.6319327 
H    -1.9535114   -4.7511544    0.4486220 
H    -1.2429689   -3.2976157   -0.3078305 
H    -0.2956524   -4.2648925    0.8647670 
C    -1.8811860   -3.7931991    3.1139715 
H    -2.3548376   -4.7808365    2.9626038 
H    -0.8675626   -3.9681825    3.4985417 
H    -2.4606851   -3.2694366    3.8909507 
C    -0.4738959   -0.9538670    4.6479795 
H    -0.7369538   -0.3427271    5.5311004 
H    -0.7455767   -1.9961731    4.8752707 
H     0.6163080   -0.8855398    4.5182664 
C    -0.7487928    1.0514870    3.1483877 
H    -1.3341156    1.5085090    2.3339619 
H    -0.8951795    1.6620946    4.0584892 
H     0.3194279    1.0880339    2.8815697 
H     2.0311723    2.6013382   -0.9830775 
C     0.4414112    4.6128207    0.1678286 
C     0.3812435    3.0858775    0.3450962 
C     0.9567048    2.3519591   -0.8847413 
C     0.2221990    2.8012223   -2.1597259 
C     0.2815722    4.3272666   -2.3421946 
C    -0.2802035    5.0594928   -1.1135962 
H     1.5016335    4.9313270    0.1232460 
H     0.0021757    5.1053745    1.0540276 
H    -0.6732084    2.7698023    0.4727177 
H     0.9129595    2.7852153    1.2631860 
H     0.6205240    2.2975400   -3.0567649 
H    -0.8328713    2.4901091   -2.0665208 
H     1.3330031    4.6340284   -2.5074565 
H    -0.2755306    4.6087319   -3.2543106 
H    -1.3618492    4.8334532   -1.0188025 
H    -0.1969881    6.1531301   -1.2432966 
H     0.8103249    0.0414709   -2.9858920 
C     2.1303298   -2.3839813   -3.4547040 
C     1.6363278   -1.7586299   -2.1363434 
C     1.5779915   -0.2194102   -2.2321027 
C     2.9205900    0.3917856   -2.6769369 
C     3.3889195   -0.2419205   -4.0024168 
C     3.4631410   -1.7760380   -3.9237084 
H     1.3673001   -2.2139138   -4.2382116 
H     2.2241731   -3.4787405   -3.3378161 
H     2.3076621   -2.0384484   -1.3023937 
H     0.6320452   -2.1483364   -1.8797341 
H     2.8194388    1.4831495   -2.8111845 
H     3.6692366    0.2384920   -1.8787467 
H     2.6758068    0.0448913   -4.8003004 
H     4.3700607    0.1768010   -4.2897370 
H     4.2720127   -2.0748240   -3.2292026 
H     3.7414560   -2.1927352   -4.9079718 
