132
Energy =
C     0.5188845   -0.3722972   -3.5999165 
C     0.4676587    1.0244733   -3.3071089 
C     1.4312049    1.6221786   -2.4596944 
H    -0.4140691    1.6021160   -3.6113772 
Pd    0.3230391   -0.0540396   -1.4015446 
P     0.2127836    0.9039957    0.7187911 
P    -0.3723668   -2.2016426   -0.7890367 
H     1.5148663   -0.8403409   -3.6197265 
H     2.3868991    1.0886296   -2.3414768 
C    -2.5062329   -2.6034451   -5.7136884 
C    -2.8530460   -1.4184909   -5.0418997 
C    -1.8795162   -0.6778679   -4.3635638 
C    -0.5282112   -1.0972145   -4.3490565 
C    -0.1916036   -2.2785196   -5.0502510 
C    -1.1695194   -3.0275923   -5.7183449 
H    -3.2722411   -3.1850608   -6.2364278 
H    -3.8926029   -1.0742397   -5.0421768 
H    -2.1758714    0.2250743   -3.8188707 
H     0.8541774   -2.6055301   -5.0785775 
H    -0.8835994   -3.9402471   -6.2517484 
C     1.7227691    5.7646234   -1.3476799 
C     2.7115454    4.8460550   -0.9653672 
C     2.5890839    3.4975211   -1.3194138 
C     1.4735278    3.0370700   -2.0571817 
C     0.4687407    3.9687373   -2.4053694 
C     0.5994078    5.3173745   -2.0620528 
H     1.8230820    6.8228126   -1.0864608 
H     3.5871503    5.1818665   -0.4002126 
H     3.3689906    2.7861119   -1.0271114 
H    -0.4177085    3.6432011   -2.9584025 
H    -0.1809402    6.0270684   -2.3552907 
Fe   -0.4708947   -0.8953067    3.7414764 
C    -0.7611577   -0.1140428    1.8846467 
C    -0.8410584   -1.5694921    1.8688723 
C    -1.9061627   -1.9482911    2.7637738 
C    -2.4651702   -0.7599222    3.3407017 
C    -1.7613893    0.3692108    2.8116728 
C     1.0234408   -2.0510224    4.5424290 
C     1.4886605   -0.7146084    4.3181138 
C     0.6494862    0.1784945    5.0699900 
C    -0.3333674   -0.6105850    5.7568355 
C    -0.1053620   -1.9889943    5.4273205 
C    -0.7393930    2.4695123    0.6476227 
C    -0.2045014    3.7379284    0.9344577 
C    -1.0077744    4.8900764    0.8712214 
C    -2.3519628    4.7548225    0.4618952 
C    -2.9119139    3.4948341    0.1416411 
C    -2.0875750    2.3653979    0.2448004 
C     1.8350432    1.2449981    1.4821805 
C     1.9698927    2.0561141    2.6245907 
C     3.2199726    2.2511621    3.2314685 
C     4.3436065    1.5914441    2.6752849 
C     4.2405684    0.7778180    1.5224468 
C     2.9718602    0.6186193    0.9396351 
C     0.0109453   -2.4984749    1.0378746 
H    -2.2081435   -2.9689549    3.0031223 
H    -3.2627435   -0.7256664    4.0849836 
H    -1.9479170    1.4182579    3.0458061 
H     1.4538908   -2.9562512    4.1111155 
H     2.3244943   -0.4272926    3.6787968 
H     0.7387523    1.2642567    5.1142398 
H    -1.1301340   -0.2282234    6.3975256 
H    -0.6988020   -2.8377101    5.7726875 
H     0.8489816    3.8494163    1.2038346 
H    -2.5144633    1.3805468    0.0314249 
H     1.0882598    2.5358945    3.0611309 
H     2.8646401   -0.0041423    0.0420240 
H     1.0556828   -2.1387422    1.1017138 
H     0.4639165   -3.0215488   -2.8084363 
H    -2.1715340   -2.6622927   -2.2461938 
C    -4.4367435   -1.2952879   -1.3888813 
C    -2.9790701   -1.1600185   -0.9191212 
C    -2.1867205   -2.4685635   -1.1527810 
C    -2.8904261   -3.6475756   -0.4442698 
C    -4.3433496   -3.7853465   -0.9387397 
C    -5.1368666   -2.4876512   -0.7176626 
H    -4.4468322   -1.4342374   -2.4872292 
H    -4.9814246   -0.3560409   -1.1802346 
H    -2.9571628   -0.9149392    0.1600092 
H    -2.4772765   -0.3292766   -1.4489318 
H    -2.3460108   -4.5927543   -0.6018104 
H    -2.9004230   -3.4517461    0.6435311 
H    -4.3359581   -4.0358297   -2.0179493 
H    -4.8304264   -4.6304726   -0.4199464 
H    -5.2226581   -2.2951547    0.3701348 
H    -6.1663837   -2.5959874   -1.1030469 
C     0.9676504   -5.6934760   -2.8798252 
C     0.1052729   -4.9034562   -1.8746347 
C     0.5967399   -3.4421211   -1.7945364 
C     2.1012471   -3.3498710   -1.4515558 
C     2.9424223   -4.1572951   -2.4562608 
C     2.4640785   -5.6164436   -2.5364138 
H     0.8020843   -5.2802773   -3.8946106 
H     0.6304383   -6.7449822   -2.9087474 
H     0.1550593   -5.3895734   -0.8842150 
H    -0.9492623   -4.9296376   -2.1985291 
H     2.4184635   -2.2883043   -1.4436052 
H     2.2799239   -3.7424450   -0.4317343 
H     2.8586447   -3.6874080   -3.4565735 
H     4.0096784   -4.1120210   -2.1739554 
H     2.6416175   -6.1113374   -1.5608687 
H     3.0574463   -6.1726681   -3.2837202 
C    -0.0284054   -3.9581443    1.5217628 
H     0.1682705   -3.9793840    2.6067653 
H    -1.0032669   -4.4355963    1.3464038 
H     0.7443146   -4.5637363    1.0241543 
C    -0.4764675    6.2480824    1.2632031 
H    -0.5470711    6.9678128    0.4292496 
H    -1.0694863    6.6682186    2.0945887 
H     0.5792990    6.1861729    1.5710083 
C    -4.3637357    3.3735770   -0.2595213 
H    -4.9791957    4.1066470    0.2876864 
H    -4.5021381    3.5697268   -1.3396110 
H    -4.7461504    2.3593912   -0.0568202 
O    -3.1496491    5.8794247    0.4567387 
C    -3.3100931    6.5314562   -0.8087619 
H    -3.9615537    7.3999207   -0.6308643 
H    -2.3368422    6.8782442   -1.2063888 
H    -3.7836612    5.8654209   -1.5548287 
C     3.3756672    3.1270670    4.4517761 
H     2.5539763    3.8582894    4.5219847 
H     3.3627566    2.5223023    5.3782975 
H     4.3378748    3.6639431    4.4250128 
C     5.4715006    0.1237504    0.9402897 
H     6.3314222    0.8125391    0.9801413 
H     5.7546346   -0.7797792    1.5120834 
H     5.3015059   -0.1838090   -0.1046162 
O     5.5862711    1.8053117    3.2265394 
C     5.9692495    0.9050251    4.2769871 
H     6.9716504    1.2189359    4.6033574 
H     5.2686158    0.9614444    5.1312369 
H     6.0099779   -0.1396765    3.9143714 
