112
Energy =
C     2.4843485    0.0239720   -2.3677764 
C     1.8434437    1.2944616   -2.4633758 
C     1.9129075    2.2484513   -1.4293278 
H     1.1810199    1.4924968   -3.3144752 
Pd    0.9907509    0.2185814   -0.7140080 
P    -0.8714874    0.7591646    0.6344825 
P     1.1219847   -1.9824822    0.0700999 
H     3.4008917   -0.0395000   -1.7666845 
H     2.7092047    2.1194445   -0.6798799 
C     2.0371526   -3.1159102   -5.2875841 
C     1.1434210   -2.0316225   -5.2881757 
C     1.2814657   -1.0034251   -4.3496623 
C     2.3277171   -1.0267033   -3.3939010 
C     3.2299821   -2.1144665   -3.4205963 
C     3.0806622   -3.1501020   -4.3507615 
H     1.9230088   -3.9241287   -6.0171404 
H     0.3295369   -1.9914079   -6.0198604 
H     0.5524310   -0.1861069   -4.3499899 
H     4.0522176   -2.1477700   -2.6989773 
H     3.7875324   -3.9862045   -4.3446811 
C     0.3417799    6.2519597   -1.5488750 
C     1.3360454    5.8954522   -0.6262752 
C     1.8212853    4.5826435   -0.5896864 
C     1.3370749    3.6010488   -1.4853978 
C     0.3554398    3.9851986   -2.4302896 
C    -0.1424969    5.2908119   -2.4533162 
H    -0.0454815    7.2755030   -1.5740888 
H     1.7351808    6.6427911    0.0668708 
H     2.5963958    4.3108743    0.1356324 
H    -0.0283475    3.2577989   -3.1511295 
H    -0.9081566    5.5655314   -3.1861416 
Fe   -1.4595025   -0.7981173    3.8844087 
C    -1.3483765   -0.5247139    1.8469823 
C    -0.5954916   -1.7019961    2.2469582 
C    -1.5072927   -2.5886302    2.9222188 
C    -2.8076475   -1.9889994    2.9432231 
C    -2.7125081   -0.7123258    2.3039586 
C    -2.4834153   -0.1399193    5.5238284 
C    -1.6776483   -1.2801299    5.8558265 
C    -0.3089960   -0.9524215    5.5809217 
C    -0.2683722    0.3890514    5.0770058 
C    -1.6137755    0.8913648    5.0408681 
C     0.8497334   -2.0215458    1.9402042 
H    -1.2376869   -3.5460060    3.3742373 
H    -3.7000837   -2.4070533    3.4126787 
H    -3.5334035   -0.0053831    2.1666168 
H    -3.5708397   -0.0801067    5.5985789 
H    -2.0457108   -2.2387340    6.2263003 
H     0.5457677   -1.6149268    5.7297520 
H     0.6288817    0.9397251    4.7937943 
H    -1.9245911    1.8846749    4.7152907 
H    -3.2069171    1.1016061   -0.0007333 
C    -3.7865969   -0.7902093   -2.0170191 
C    -2.6146463   -0.7338612   -1.0224862 
C    -2.3311065    0.7118299   -0.5577330 
C    -2.0677733    1.6042470   -1.7903110 
C    -3.2396539    1.5573141   -2.7862170 
C    -3.5384688    0.1176561   -3.2320289 
H    -4.7177680   -0.4762309   -1.5052819 
H    -3.9388887   -1.8364664   -2.3381761 
H    -1.7049946   -1.1214119   -1.5173491 
H    -2.8099671   -1.3985987   -0.1652137 
H    -1.8593032    2.6435350   -1.4950978 
H    -1.1511288    1.2259018   -2.2882465 
H    -4.1396115    1.9918357   -2.3083829 
H    -3.0079619    2.1963738   -3.6580001 
H    -2.6719155   -0.2723856   -3.8037880 
H    -4.4053726    0.0967248   -3.9162888 
H    -1.7264498    2.0418631    2.4434269 
C    -1.6451213    4.7545342    1.9572400 
C    -1.5419266    3.5930343    0.9481953 
C    -1.0071616    2.3323336    1.6528308 
C     0.3577414    2.6082506    2.3157873 
C     0.2779464    3.7837339    3.3060271 
C    -0.2987623    5.0435403    2.6407585 
H    -2.4022483    4.4993155    2.7255527 
H    -2.0130635    5.6578628    1.4383321 
H    -0.8642125    3.8828422    0.1251942 
H    -2.5353603    3.4014132    0.5065230 
H     0.7087717    1.6957158    2.8269140 
H     1.0925176    2.8342360    1.5199850 
H    -0.3614335    3.4953742    4.1623638 
H     1.2809124    3.9893177    3.7222785 
H     0.4151068    5.4104705    1.8810445 
H    -0.4139169    5.8503181    3.3864774 
H     1.0467812   -3.0630885    2.2511633 
C     1.8730962   -1.1062822    2.6351819 
H     1.6685638   -1.1022855    3.7156312 
H     2.9035079   -1.4624127    2.4776330 
H     1.7944636   -0.0686051    2.2669966 
C    -1.6928718   -5.0965159   -1.9211015 
C    -1.0637233   -4.0933878   -2.6745320 
C    -0.2335408   -3.1601501   -2.0429698 
C    -0.0149684   -3.2234890   -0.6514515 
C    -0.6315235   -4.2457615    0.0969297 
C    -1.4724278   -5.1717284   -0.5376712 
H    -2.3495957   -5.8228816   -2.4110358 
H    -1.2171944   -4.0315880   -3.7568157 
H     0.2513272   -2.3786629   -2.6345935 
H    -0.4618924   -4.3323153    1.1721966 
H    -1.9534808   -5.9578268    0.0535262 
C     5.3771686   -3.7935880   -0.5069957 
C     5.2198049   -2.4657220   -0.0765317 
C     3.9360523   -1.9330502    0.0952898 
C     2.7924004   -2.7262099   -0.1460266 
C     2.9585850   -4.0575921   -0.5766492 
C     4.2464205   -4.5844751   -0.7563034 
H     6.3803096   -4.2074429   -0.6517832 
H     6.0984982   -1.8413448    0.1153928 
H     3.8201696   -0.8880357    0.4047811 
H     2.0834350   -4.6796744   -0.7873354 
H     4.3634181   -5.6180623   -1.0981850 
