124
Energy =
C     2.3368196    1.6888980    1.8924280 
C     2.2028516    0.5161834    2.6783073 
C     2.5781085   -0.7579136    2.1842959 
H     1.6943654    0.5822251    3.6477032 
Pd    0.9334127    0.1528215    0.8995830 
P    -0.0423909   -1.8627474    0.1810492 
P    -0.1266254    1.5119260   -0.6954222 
H     3.0842757    1.6649760    1.0863137 
H     3.2898908   -0.7752573    1.3453090 
C     1.3018811    5.6773549    3.1595955 
C     0.7820824    4.5701486    3.8517551 
C     1.1113743    3.2701267    3.4566769 
C     1.9754771    3.0401372    2.3598758 
C     2.5145259    4.1662381    1.6952798 
C     2.1763001    5.4690704    2.0830344 
H     1.0359073    6.6937807    3.4668550 
H     0.1082543    4.7232423    4.7012310 
H     0.6723134    2.4241762    3.9962098 
H     3.2194299    4.0140745    0.8707400 
H     2.6057621    6.3232073    1.5489710 
C     2.4163784   -4.4913479    4.3255986 
C     3.0953433   -4.3912718    3.1016610 
C     3.1468966   -3.1661464    2.4257871 
C     2.5099734   -2.0155602    2.9477007 
C     1.8336328   -2.1330868    4.1856179 
C     1.7928416   -3.3543334    4.8663143 
H     2.3787840   -5.4461865    4.8593862 
H     3.5962247   -5.2677553    2.6777545 
H     3.6981253   -3.0890808    1.4814448 
H     1.3259397   -1.2657579    4.6195058 
H     1.2665703   -3.4223967    5.8239715 
Fe   -2.2310295    0.3489909   -3.4039375 
C    -0.6133732    0.5426047   -2.1686857 
C    -1.1560713   -0.8105374   -2.1164338 
C    -1.1209684   -1.3502717   -3.4510225 
C    -0.5684220   -0.3629046   -4.3291307 
C    -0.2667022    0.8024368   -3.5540154 
C    -3.6660301    1.7669863   -3.0127796 
C    -3.2100241    1.8626290   -4.3685474 
C    -3.4585606    0.6005348   -5.0067768 
C    -4.0636566   -0.2752268   -4.0421115 
C    -4.1914956    0.4457759   -2.8076745 
C    -1.5787278   -1.5479168   -0.8729613 
H    -1.4895977   -2.3309384   -3.7545377 
H    -0.4403324   -0.4622424   -5.4083659 
H     0.1464215    1.7275048   -3.9526189 
H    -3.6284453    2.5644442   -2.2706308 
H    -2.7482986    2.7367858   -4.8309813 
H    -3.2114534    0.3435794   -6.0384362 
H    -4.3635051   -1.3101208   -4.2174326 
H    -4.6277417    0.0620898   -1.8833556 
H    -2.1235908   -0.8415702   -0.2264415 
C    -2.5164239   -2.7325590   -1.1618339 
H    -3.3433080   -2.3706932   -1.7979898 
H    -2.0158962   -3.5565615   -1.6908103 
H    -2.9517122   -3.1342176   -0.2343574 
H     1.3729414    3.2827502   -0.3372604 
C     1.5644252    4.9874198   -2.4963115 
C     0.4837413    3.9367581   -2.1753247 
C     1.0732641    2.8127687   -1.2931683 
C     2.3436377    2.1776456   -1.9062411 
C     3.3928439    3.2495325   -2.2524849 
C     2.8003040    4.3483165   -3.1495303 
H     1.8651549    5.4912151   -1.5562706 
H     1.1377003    5.7682938   -3.1508717 
H     0.0797473    3.5239106   -3.1170958 
H    -0.3622713    4.4224436   -1.6588158 
H     2.7641696    1.4364265   -1.2009189 
H     2.0841249    1.6144007   -2.8203379 
H     3.7717308    3.7092427   -1.3185438 
H     4.2609741    2.7729830   -2.7418800 
H     2.5124282    3.9080460   -4.1250709 
H     3.5619809    5.1186918   -3.3645252 
H    -1.9625191    3.0455064   -0.9747872 
C    -2.4236266    4.2365323    1.5482708 
C    -1.2135170    3.4342760    1.0406314 
C    -1.6120881    2.4725137   -0.0949192 
C    -2.7445022    1.5385576    0.3721284 
C    -3.9588886    2.3362709    0.8792135 
C    -3.5624809    3.3093960    2.0013349 
H    -2.7866581    4.9015500    0.7399362 
H    -2.1011682    4.8927315    2.3764643 
H    -0.8016867    2.8310968    1.8695536 
H    -0.4090732    4.1233376    0.7302251 
H    -3.0375538    0.8762426   -0.4591957 
H    -2.3586001    0.8969597    1.1900512 
H    -4.3970414    2.9068844    0.0366097 
H    -4.7422817    1.6382187    1.2256754 
H    -3.2280716    2.7281302    2.8838074 
H    -4.4376915    3.9005336    2.3245569 
H     1.8148948   -3.3055633    0.0491047 
C     3.3233795   -2.7146221   -2.2024502 
C     2.1563452   -1.9255554   -1.5846708 
C     1.2210749   -2.8571461   -0.7738219 
C     0.6988563   -4.0000500   -1.6733074 
C     1.8744222   -4.7925050   -2.2768714 
C     2.8195762   -3.8778617   -3.0718819 
H     3.9605725   -3.1147660   -1.3881153 
H     3.9598230   -2.0333430   -2.7955433 
H     1.5729361   -1.4310415   -2.3841444 
H     2.5383852   -1.1175512   -0.9326165 
H     0.0334658   -4.6769846   -1.1138051 
H     0.1052343   -3.5612016   -2.4949060 
H     2.4365866   -5.2858460   -1.4592399 
H     1.4824746   -5.5993654   -2.9218551 
H     2.2772352   -3.4677593   -3.9466419 
H     3.6713720   -4.4574122   -3.4700250 
H     0.3102036   -2.7842963    2.3148476 
C    -1.2008059   -5.0228317    2.8306472 
C    -0.8572222   -4.3690060    1.4772261 
C    -0.5802474   -2.8608551    1.6640268 
C    -1.7325419   -2.1308080    2.3941298 
C    -2.0599004   -2.8164524    3.7326219 
C    -2.3672135   -4.3094131    3.5325300 
H    -0.3055219   -4.9863897    3.4800358 
H    -1.4379788   -6.0901153    2.6716344 
H    -1.6905353   -4.5305129    0.7709556 
H     0.0329340   -4.8621818    1.0502012 
H    -1.4525924   -1.0719740    2.5588468 
H    -2.6413599   -2.1260481    1.7617581 
H    -1.1927994   -2.7101538    4.4124027 
H    -2.9113816   -2.3033825    4.2148228 
H    -3.2860451   -4.4155786    2.9218371 
H    -2.5788557   -4.7893563    4.5046971 
