110
Energy =
C    -3.6187152    0.6712364    0.0449360 
C    -2.7872269    1.8074022   -0.0462428 
C    -1.9122956    2.0257453   -1.1409819 
H    -2.7821566    2.5240646    0.7829683 
Pd   -1.2508789    0.1884480    0.0245708 
P     0.9846544    0.6262376   -0.3894258 
P    -0.9717896   -2.0643041    0.8280144 
H    -3.8111577    0.1193922   -0.8862792 
H    -2.1023556    1.4359345   -2.0504294 
C    -6.6053667    0.0813890    3.0888047 
C    -5.5244191    0.9461082    3.3323239 
C    -4.5441463    1.1423611    2.3564596 
C    -4.6175415    0.4781222    1.1080071 
C    -5.7233351   -0.3732488    0.8726425 
C    -6.7036889   -0.5725046    1.8519522 
H    -7.3698096   -0.0734207    3.8569412 
H    -5.4458421    1.4670803    4.2921123 
H    -3.7011762    1.8061531    2.5757526 
H    -5.8211776   -0.8719405   -0.0979288 
H    -7.5516337   -1.2334775    1.6451529 
C     0.0474616    5.7578977   -1.9961744 
C     0.0275612    4.7252279   -2.9455958 
C    -0.5843781    3.5035247   -2.6397693 
C    -1.1876789    3.2868269   -1.3785462 
C    -1.1388990    4.3317857   -0.4254187 
C    -0.5344314    5.5536442   -0.7333323 
H     0.5150406    6.7184442   -2.2358466 
H     0.4772344    4.8745552   -3.9326813 
H    -0.6138929    2.7095752   -3.3932666 
H    -1.5785530    4.1960847    0.5670311 
H    -0.5017407    6.3452510    0.0209052 
Fe    3.7082035   -1.6676083    0.0616757 
C     2.1524172   -0.4373513    0.5074452 
C     1.9058911   -1.7911146    0.9798998 
C     2.9744539   -2.1082385    1.8993050 
C     3.8698799   -0.9936798    1.9806496 
C     3.3779026    0.0351878    1.1206087 
C     3.8627510   -1.9887836   -1.9609374 
C     5.0023224   -1.2629519   -1.4713015 
C     5.6367381   -2.0641539   -0.4633831 
C     4.8891633   -3.2827745   -0.3292615 
C     3.7945853   -3.2344404   -1.2568895 
C     1.4050973    2.2699454    0.3266730 
C     1.0544451    2.4502351    1.6838865 
C     1.3217431    3.6585887    2.3313853 
C     1.9453815    4.7028010    1.6268855 
C     2.2974905    4.5315414    0.2818689 
C     2.0210472    3.3226474   -0.3702881 
C     1.5026388    0.6460917   -2.1491302 
C     0.6102523    0.1847684   -3.1340569 
C     0.9920168    0.1533771   -4.4814825 
C     2.2701267    0.5978538   -4.8518198 
C     3.1751765    1.0458735   -3.8742721 
C     2.7968823    1.0579283   -2.5283062 
C     0.7974881   -2.7383336    0.5561802 
H     3.1154454   -3.0533330    2.4233176 
H     4.7863767   -0.9530683    2.5716671 
H     3.8203935    1.0212055    0.9707835 
H     3.1677054   -1.6537254   -2.7317845 
H     5.3410639   -0.2833499   -1.8102763 
H     6.5211675   -1.7882879    0.1135938 
H     5.1052181   -4.0933417    0.3692957 
H     3.0395453   -4.0096293   -1.4029795 
H     0.5695417    1.6352909    2.2340707 
H     2.2590199    3.2293000   -1.4318079 
H    -0.3869754   -0.1580659   -2.8409969 
H     3.5203423    1.3635976   -1.7674201 
H     0.8177213   -2.7876177   -0.5491454 
C     1.0916775   -4.1457140    1.1154330 
H     2.0802722   -4.4673005    0.7465793 
H     1.1356950   -4.1413608    2.2150266 
H     0.3551552   -4.8951420    0.8095669 
C     2.1474141    6.0452801    2.2924725 
F     1.0531455    6.8384742    2.1146575 
F     2.3343392    5.9245919    3.6250689 
F     3.2052939    6.7093441    1.7782429 
H     1.0518139    3.7956887    3.3824540 
H     2.7709100    5.3506192   -0.2662144 
H     0.3020316   -0.2161301   -5.2454929 
H     4.1790629    1.3641954   -4.1699088 
C     2.6631438    0.6349166   -6.3148104 
F     2.3520740    1.8336793   -6.8645957 
F     3.9920714    0.4485572   -6.4765462 
F     2.0179156   -0.3162107   -7.0267870 
C    -2.0562034   -3.1536923   -0.3401927 
C    -1.3870927   -2.2959804    2.6804507 
C    -1.8466895   -2.5691156   -1.7583408 
H    -2.4465686   -3.1478752   -2.4845569 
H    -2.1706061   -1.5130535   -1.8091994 
H    -0.7912822   -2.6215818   -2.0806910 
C    -0.1650286   -1.7615797    3.4644002 
H    -0.4392286   -1.6732342    4.5313309 
H     0.7093958   -2.4257899    3.3968861 
H     0.1391903   -0.7605551    3.1082967 
C    -1.7372337   -4.6622532   -0.3915632 
H    -2.4990210   -5.1488755   -1.0282701 
H    -0.7566594   -4.8671754   -0.8502207 
H    -1.7820905   -5.1424031    0.5984372 
C    -3.5313308   -2.9736177    0.0648247 
H    -4.1793038   -3.3755722   -0.7354033 
H    -3.7763151   -3.5146430    0.9927519 
H    -3.7833879   -1.9151473    0.2103989 
C    -2.5878562   -1.3884825    3.0118402 
H    -2.8016701   -1.4517965    4.0943817 
H    -2.3604120   -0.3371510    2.7696632 
H    -3.5056938   -1.6684403    2.4736291 
C    -1.7037454   -3.7475263    3.0961588 
H    -0.8824039   -4.4463821    2.8805938 
H    -1.8800120   -3.7682387    4.1874958 
H    -2.6190921   -4.1233060    2.6114439 
