112
Energy =
C     2.7249846   -1.5431766   -1.2581374 
C     2.9940253   -0.1523385   -1.3943881 
C     3.1758763    0.6864415   -0.2759817 
H     2.9595193    0.3006552   -2.3926836 
Pd    1.0747508   -0.3645623   -0.2935799 
P    -0.4476823    1.2441865    0.5053517 
P    -0.4195057   -2.1558201   -0.0828276 
H     3.0934830   -2.0418207   -0.3510571 
H     3.4128927    0.1978964    0.6814470 
C     2.0966582   -4.2040437   -4.5864388 
C     1.9215464   -2.8202229   -4.7591219 
C     2.1131037   -1.9457246   -3.6846313 
C     2.5034540   -2.4331767   -2.4134245 
C     2.6847574   -3.8268283   -2.2577116 
C     2.4768921   -4.7024108   -3.3308074 
H     1.9394693   -4.8880117   -5.4267424 
H     1.6208370   -2.4228581   -5.7340697 
H     1.9333216   -0.8755548   -3.8314204 
H     2.9864759   -4.2232552   -1.2825507 
H     2.6164770   -5.7785275   -3.1852371 
C     4.3684844    4.8199687   -0.4153191 
C     4.5942800    4.0433512    0.7301925 
C     4.1812590    2.7057620    0.7647124 
C     3.5485708    2.1086892   -0.3501728 
C     3.3579209    2.8975780   -1.5098942 
C     3.7528828    4.2379125   -1.5370176 
H     4.6814440    5.8685964   -0.4413996 
H     5.0934650    4.4812620    1.6005110 
H     4.3599966    2.1064163    1.6644737 
H     2.8893175    2.4640642   -2.3978774 
H     3.5861545    4.8332812   -2.4406423 
Fe   -2.8299425    0.3394722    3.1035785 
C    -1.9784510    0.5966736    1.2644547 
C    -2.3628826   -0.7892016    1.4845137 
C    -3.7855188   -0.8085314    1.7315171 
C    -4.2793483    0.5353665    1.6841135 
C    -3.1754881    1.4033508    1.4147953 
C    -2.6226279   -0.7706926    4.8115963 
C    -1.5107869    0.1199829    4.6551817 
C    -2.0218227    1.4636276    4.6122045 
C    -3.4472976    1.3996760    4.7420991 
C    -3.8197884    0.0195803    4.8620656 
C    -1.4558751   -1.9991131    1.4930585 
H    -4.3831640   -1.6911116    1.9635137 
H    -5.3091178    0.8445595    1.8720401 
H    -3.2277207    2.4899327    1.3188829 
H    -2.5705174   -1.8592376    4.8725934 
H    -0.4615443   -0.1738641    4.5929068 
H    -1.4320050    2.3737354    4.5061741 
H    -4.1322567    2.2493246    4.7238864 
H    -4.8380806   -0.3641957    4.9478507 
H    -0.6548264   -1.8186150    2.2345025 
C    -2.1823410   -3.3040849    1.8587631 
H    -2.7057477   -3.1750315    2.8212461 
H    -2.9266997   -3.5850134    1.0951627 
H    -1.4693468   -4.1358935    1.9662652 
H    -1.7287540    2.9463925   -0.6916245 
C    -2.6313303    1.7507133   -3.0845951 
C    -2.0730144    1.1059161   -1.8042722 
C    -1.1419525    2.0729151   -1.0403040 
C    -0.0098995    2.5492323   -1.9743121 
C    -0.5649997    3.2000941   -3.2532849 
C    -1.5049517    2.2451969   -4.0053793 
H    -3.2837432    2.6027938   -2.8094030 
H    -3.2700863    1.0180579   -3.6102427 
H    -1.4941868    0.2025194   -2.0775302 
H    -2.9017782    0.7698851   -1.1599586 
H     0.6687123    3.2438113   -1.4566650 
H     0.5950849    1.6606082   -2.2497934 
H    -1.1138219    4.1232263   -2.9817797 
H     0.2743423    3.5130151   -3.9011456 
H    -0.9241743    1.3729621   -4.3674022 
H    -1.9245299    2.7402413   -4.8992124 
H    -0.9018091    2.8243988    2.2344447 
C     0.8906781    4.9171959    2.2404333 
C     0.6017177    3.9022474    1.1165042 
C     0.0500965    2.5942805    1.7162216 
C     1.0331048    2.0045789    2.7490364 
C     1.3589603    3.0177104    3.8620059 
C     1.8632411    4.3507978    3.2874798 
H    -0.0631381    5.1931161    2.7328759 
H     1.2994982    5.8440217    1.7997024 
H     1.5343410    3.6985475    0.5605784 
H    -0.1192219    4.3386864    0.4031919 
H     0.6134468    1.0767963    3.1755283 
H     1.9617171    1.7203485    2.2204630 
H     0.4497854    3.2048742    4.4653841 
H     2.1049006    2.5850322    4.5531661 
H     2.8472417    4.1918660    2.8111100 
H     2.0173707    5.0817069    4.1013182 
C    -3.1452977   -2.8638463   -3.7794874 
C    -3.7092448   -2.3668583   -2.5951340 
C    -2.9159490   -2.1822543   -1.4544483 
C    -1.5414192   -2.4996438   -1.4869669 
C    -0.9808209   -3.0022087   -2.6822851 
C    -1.7796395   -3.1833263   -3.8177815 
H    -3.7689942   -3.0038885   -4.6684254 
H    -4.7746337   -2.1174567   -2.5550139 
H    -3.3706206   -1.7726504   -0.5502255 
H     0.0793976   -3.2597706   -2.7253652 
H    -1.3250378   -3.5751221   -4.7334087 
C     1.9125385   -6.0455480    0.9627277 
C     2.2407017   -4.8159998    1.5576655 
C     1.5328803   -3.6593427    1.2075794 
C     0.4836605   -3.7195312    0.2647414 
C     0.1453788   -4.9589781   -0.3113758 
C     0.8643754   -6.1133206    0.0335536 
H     2.4717402   -6.9488206    1.2271744 
H     3.0524224   -4.7580142    2.2901724 
H     1.7995021   -2.6978618    1.6652108 
H    -0.6761011   -5.0271274   -1.0303625 
H     0.6003987   -7.0706403   -0.4276044 
