142
Energy =
C     2.7115731    2.1100084   -0.3133408 
C     3.2872187    0.8292008   -0.0825141 
C     3.0535107   -0.2329018   -0.9887982 
H     3.8206200    0.6348085    0.8556371 
Pd    1.0991709    0.5415745   -0.0174754 
P     0.0503274   -1.5532940    0.1813822 
P    -0.5395962    2.1500952    0.4178735 
H     2.4778984    2.3624262   -1.3579197 
H     2.6882470    0.0498018   -1.9878444 
C     2.9203268    5.5321826    2.2873151 
C     3.1682622    4.2495026    2.8043215 
C     3.1196008    3.1291633    1.9695611 
C     2.8292687    3.2654173    0.5918796 
C     2.6121266    4.5660902    0.0809240 
C     2.6489513    5.6871319    0.9196940 
H     2.9352383    6.4041578    2.9478278 
H     3.3844891    4.1154638    3.8688758 
H     3.2802775    2.1370930    2.4030903 
H     2.4187043    4.6974111   -0.9886306 
H     2.4645777    6.6808382    0.5000928 
C     4.8067067   -4.1496159   -0.9039594 
C     3.9930261   -3.7522230   -1.9753450 
C     3.4133095   -2.4792761   -1.9782203 
C     3.6326309   -1.5790089   -0.9087105 
C     4.4442465   -2.0005907    0.1705723 
C     5.0248007   -3.2713586    0.1708197 
H     5.2667667   -5.1428739   -0.9009783 
H     3.8157990   -4.4319031   -2.8151417 
H     2.7849278   -2.1712507   -2.8199105 
H     4.6294795   -1.3320784    1.0160364 
H     5.6432786   -3.5840248    1.0180161 
Fe   -4.4992355    0.3442647   -1.5180781 
C    -2.6828566    0.8245625   -0.7551799 
C    -2.8831382   -0.6157273   -0.6798689 
C    -3.1442970   -1.0869063   -2.0176070 
H    -3.3366404   -2.1269037   -2.2833465 
C    -3.0639817    0.0219602   -2.9191406 
H    -3.2211660   -0.0126672   -3.9985212 
C    -2.7936121    1.2002135   -2.1493889 
H    -2.7326104    2.2158510   -2.5428678 
C    -5.8581851    1.7330191   -0.8816265 
H    -5.6309736    2.6740250   -0.3763278 
C    -6.1061914    0.4717408   -0.2436177 
H    -6.1219883    0.2945783    0.8333310 
C    -6.3497231   -0.5053995   -1.2684552 
H    -6.5674848   -1.5641580   -1.1153675 
C    -6.2583254    0.1553538   -2.5384848 
H    -6.3754617   -0.3149912   -3.5164272 
C    -5.9558616    1.5383022   -2.2999860 
H    -5.8004603    2.3012472   -3.0652701 
C    -2.7896217   -1.4804789    0.5305263 
C    -1.5378446   -1.8708066    1.0865364 
C    -1.5158076   -2.6112985    2.2873609 
H    -0.5585312   -2.9079623    2.7237141 
C    -2.7036671   -3.0013039    2.9202081 
H    -2.6587832   -3.5722938    3.8532194 
C    -3.9353687   -2.6848959    2.3359748 
H    -4.8715383   -3.0112525    2.8005159 
C    -3.9665209   -1.9330943    1.1550383 
H    -4.9185612   -1.6603815    0.6971595 
C     1.2451721   -2.5766174    1.1293666 
C     1.8301072   -1.9848355    2.2680958 
H     1.5917211   -0.9455190    2.5251089 
C     2.7191334   -2.6947675    3.0891350 
C     3.0185600   -4.0311170    2.7343419 
C     2.4647927   -4.6436144    1.5867096 
C     1.5773934   -3.8981947    0.7915680 
H     1.1693211   -4.3548660   -0.1147900 
C    -0.2602456   -2.3531695   -1.4336293 
C    -0.8996856   -3.6069653   -1.5179067 
H    -1.1874828   -4.1395570   -0.6043091 
C    -1.2070866   -4.1737846   -2.7634729 
C    -0.8813302   -3.4434179   -3.9334752 
C    -0.2282978   -2.1911646   -3.8802618 
C     0.0670385   -1.6637221   -2.6123373 
H     0.5485480   -0.6814243   -2.5444509 
C    -0.2660848    2.9416274    2.0530003 
C    -0.6586689    4.2287454    2.4612118 
H    -1.1833059    4.9099330    1.7880151 
C    -0.4019541    4.6581448    3.7724050 
C     0.2070725    3.8068397    4.7056083 
H     0.3915620    4.1484273    5.7272024 
C     0.5693439    2.5136815    4.3087928 
C     0.3440919    2.0912806    2.9945632 
H     0.6525664    1.0873498    2.6834088 
C    -0.3554409    3.3427029   -0.9741343 
C    -0.1152858    2.7145039   -2.2105248 
H    -0.0640250    1.6208644   -2.2571162 
C     0.0718903    3.4628042   -3.3777579 
C     0.0506681    4.8627909   -3.3316980 
H     0.2176900    5.4534706   -4.2360098 
C    -0.1738002    5.4931325   -2.0986706 
C    -0.3910898    4.7464497   -0.9290481 
H    -0.5481191    5.2861392    0.0049616 
C    -2.4094896    1.7862606    0.3728067 
H    -2.8570335    2.7594208    0.1004965 
C    -2.9262540    1.3666053    1.7589191 
H    -3.9643569    1.0124256    1.6548150 
H    -2.3346964    0.5478017    2.1988183 
H    -2.9095119    2.2192248    2.4563430 
C     0.2976169    2.7008225   -4.6625260 
F    -0.8134718    1.9992847   -5.0147222 
F     0.6273952    3.4973658   -5.6922675 
F     1.2965762    1.7833902   -4.5040261 
C    -0.0650489    6.9996748   -1.9966891 
F    -0.8232697    7.4889067   -0.9895693 
F     1.2222896    7.3628158   -1.7406411 
F    -0.4343512    7.6111907   -3.1393778 
C    -0.7373084    6.0857582    4.1540316 
F     0.2572983    6.9285853    3.7763932 
F    -1.8687717    6.5061634    3.5406874 
F    -0.9042590    6.2250454    5.4848616 
C     1.3042942    1.5838505    5.2463907 
F     0.9023165    0.2970034    5.0872756 
F     2.6463460    1.6004305    4.9844367 
F     1.1434808    1.9183082    6.5383457 
C     3.3663573   -2.0532918    4.2939362 
H     4.3908168   -2.4363094    4.4310895 
H     3.3955845   -0.9564274    4.1974610 
H     2.8021638   -2.2796015    5.2179463 
C     2.8517548   -6.0553887    1.2173305 
H     2.6650756   -6.2483330    0.1487803 
H     3.9166769   -6.2351630    1.4374141 
H     2.2690832   -6.7938015    1.7997260 
C    -1.8733802   -5.5236574   -2.8849024 
H    -2.8919486   -5.4319283   -3.3042455 
H    -1.3075571   -6.1760353   -3.5716778 
H    -1.9527580   -6.0174797   -1.9032153 
C     0.1340748   -1.4453558   -5.1428475 
H     1.0484571   -0.8471838   -5.0009688 
H     0.2885236   -2.1479731   -5.9773249 
H    -0.6644078   -0.7381021   -5.4338012 
O     3.9666967   -4.7193810    3.4605890 
O    -1.1721537   -4.0175960   -5.1509433 
C     3.4787233   -5.4763614    4.5775289 
H     4.3566717   -5.9581385    5.0329266 
H     2.9899025   -4.8215707    5.3236103 
H     2.7599178   -6.2520224    4.2521411 
C    -2.3748861   -3.5582746   -5.7826738 
H    -2.4712023   -4.1277477   -6.7188767 
H    -3.2582323   -3.7486429   -5.1427342 
H    -2.3258422   -2.4772829   -6.0141257 
