106
Energy =
C    -1.8775447   -1.7660534   -2.1067928 
C    -0.6710938   -1.9374051   -2.8467198 
C     0.3717148   -2.7762128   -2.3786167 
H    -0.4783344   -1.2643467   -3.6921076 
Pd   -0.1375634   -1.1713784   -0.8567348 
P     1.9316534   -0.9114481    0.1838780 
P    -1.2161487    0.3584956    0.5407558 
H    -2.2168091   -2.6131981   -1.4910271 
H     0.1021740   -3.5746561   -1.6701386 
C    -4.9862597    1.0185025   -3.1614968 
C    -3.6412759    1.3595597   -3.3823710 
C    -2.6244007    0.4619202   -3.0437430 
C    -2.9301555   -0.7960276   -2.4755947 
C    -4.2838813   -1.1180423   -2.2429781 
C    -5.3026227   -0.2210459   -2.5873785 
H    -5.7825925    1.7203925   -3.4303240 
H    -3.3846964    2.3328766   -3.8133951 
H    -1.5785056    0.7510536   -3.1933770 
H    -4.5371525   -2.0821703   -1.7899683 
H    -6.3470897   -0.4895551   -2.3995320 
C     4.2783313   -3.1651699   -4.1433537 
C     3.9938284   -3.7392967   -2.8948592 
C     2.7112852   -3.6305554   -2.3470456 
C     1.6898323   -2.9241062   -3.0235066 
C     1.9875183   -2.3628435   -4.2861477 
C     3.2663026   -2.4874359   -4.8405538 
H     5.2797823   -3.2548106   -4.5763582 
H     4.7727900   -4.2798216   -2.3472716 
H     2.4976333   -4.0814198   -1.3726882 
H     1.2120095   -1.8366010   -4.8522426 
H     3.4738413   -2.0552008   -5.8250532 
Fe    2.5936897    0.7238658    3.2767731 
C     1.9894759    0.4665631    1.3704510 
C     0.8802466    0.9319155    2.1982002 
C     1.2765146    2.1975563    2.7552858 
C     2.5936646    2.5180011    2.2963647 
C     3.0411742    1.4588753    1.4452409 
C     3.0918035    1.0072717    5.2416075 
C     2.2259073   -0.1279748    5.1065330 
C     2.8564862   -1.0669121    4.2222695 
C     4.1190208   -0.5117641    3.8150058 
C     4.2633004    0.7678238    4.4476904 
C    -0.5014089    0.3328741    2.3026014 
H     0.6688122    2.7987539    3.4343656 
H     3.1756082    3.3967178    2.5801249 
H     4.0082777    1.3902214    0.9459314 
H     2.8855479    1.9047438    5.8275983 
H     1.2548010   -0.2456278    5.5907008 
H     2.4453809   -2.0271367    3.9047254 
H     4.8223202   -0.9657454    3.1163648 
H     5.1016699    1.4552385    4.3201753 
H    -1.1333098    1.0257358    2.8858554 
C    -0.5710159   -1.0639169    2.9336766 
H    -0.1356390   -1.0246409    3.9439972 
H    -1.6114017   -1.4167041    3.0186716 
H     0.0081842   -1.7982046    2.3497243 
C     3.2403148   -0.5152368   -0.9938232 
C     3.1735114    0.0077323   -2.2687832 
C     4.5231996    0.1883546   -2.7073717 
C     5.3193761   -0.2358081   -1.6720989 
H     2.2616629    0.2152306   -2.8276576 
H     4.8591131    0.5660270   -3.6727205 
H     6.3973400   -0.3044992   -1.5314715 
O     4.5589805   -0.6598141   -0.6233369 
C     2.4527739   -2.4463486    0.9886479 
C     1.7392347   -3.6009868    1.2507303 
C     2.6396347   -4.5037124    1.9013624 
C     3.8402869   -3.8411074    1.9864301 
H     0.6929378   -3.7763686    0.9973656 
H     2.4277498   -5.5125200    2.2554925 
H     4.8173086   -4.1041711    2.3900386 
O     3.7415487   -2.5969666    1.4411621 
C    -0.0731187    4.6576787   -0.6971555 
C    -0.9156320    4.4885847    0.4230560 
C    -1.3038363    3.1869489    0.7772998 
C    -0.8688440    2.0779210    0.0202520 
C    -0.0306108    2.2785297   -1.0870696 
C     0.3846964    3.5716588   -1.4598812 
H     0.2403369    5.6713681   -0.9752212 
H    -1.9409714    3.0406803    1.6570431 
H     0.3226018    1.4067795   -1.6526819 
C    -5.7722024   -0.3121170    0.9857066 
C    -4.8770836   -1.3771148    1.2202697 
C    -3.5039383   -1.1353084    1.0690993 
C    -3.0267223    0.1468972    0.7137063 
C    -3.9418966    1.1781042    0.4511405 
C    -5.3287592    0.9583261    0.5873171 
H    -6.8491299   -0.4893575    1.0943464 
H    -2.7975091   -1.9627773    1.2067203 
H    -3.5883467    2.1569896    0.1140826 
C    -1.3605850    5.6853881    1.2339791 
H    -0.5050553    6.1309449    1.7746344 
H    -1.7791999    6.4738648    0.5841777 
H    -2.1256218    5.4102306    1.9784022 
C     1.3154422    3.7583692   -2.6375488 
H     0.8879578    3.3169676   -3.5561745 
H     1.5167300    4.8238660   -2.8328237 
H     2.2822115    3.2548934   -2.4518893 
C    -5.3961053   -2.7469771    1.5967576 
H    -6.0015266   -2.7016586    2.5196784 
H    -6.0485970   -3.1538631    0.8025665 
H    -4.5736697   -3.4622222    1.7628965 
C    -6.3008231    2.0754001    0.2834896 
H    -7.3449321    1.7597756    0.4396533 
H    -6.1084070    2.9554349    0.9230556 
H    -6.1935072    2.4044595   -0.7660431 
