134
Energy =
C     2.8846523    1.7519238   -0.8359142 
C     2.2035041    1.3366372   -1.9873119 
C     0.9082319    1.8603679   -2.3162011 
H     2.6525064    0.5826542   -2.6456587 
Pd    0.7017188    0.5796682   -0.5227029 
P    -1.6213379    0.7767551   -0.4032759 
P     1.1862484   -0.8044470    1.4194813 
H     2.4608509    2.6024725   -0.2823216 
H     0.6789655    2.8654947   -1.9318612 
C     6.9264597    0.8511430    0.2895603 
C     6.1826204    1.8113068    0.9926877 
C     4.8646689    2.0886322    0.6147524 
C     4.2562349    1.4022893   -0.4658037 
C     5.0274154    0.4477995   -1.1739623 
C     6.3462448    0.1792691   -0.8007791 
H     7.9592389    0.6341999    0.5804506 
H     6.6346039    2.3522826    1.8300824 
H     4.2956405    2.8573485    1.1483618 
H     4.5906792   -0.0905583   -2.0205447 
H     6.9288353   -0.5596488   -1.3601192 
C    -1.0548895    0.9397393   -6.0345287 
C    -0.3247435   -0.0571576   -5.3653590 
C     0.3164279    0.2294975   -4.1561798 
C     0.2358088    1.5208322   -3.5858498 
C    -0.4865201    2.5173856   -4.2779783 
C    -1.1264178    2.2299676   -5.4898376 
H    -1.5671858    0.7082576   -6.9733987 
H    -0.2655995   -1.0665121   -5.7861377 
H     0.8580234   -0.5621656   -3.6278176 
H    -0.5381579    3.5291352   -3.8633986 
H    -1.6858858    3.0188568   -6.0033411 
Fe   -2.0675201   -3.6343977   -1.6218904 
C    -1.4974815   -1.8682750   -0.8579172 
C    -0.6557591   -2.9145072   -0.3039676 
C    -0.0424760   -3.6154598   -1.4060596 
H     0.6217649   -4.4748316   -1.3029901 
C    -0.4286991   -2.9758111   -2.6253185 
H    -0.1343271   -3.2731696   -3.6334354 
C    -1.3158384   -1.8998610   -2.2981976 
H    -1.7768594   -1.2475096   -3.0373470 
C    -4.1072209   -3.6702513   -1.5161128 
H    -4.7607395   -2.8448193   -1.2250519 
C    -3.5434284   -4.6546313   -0.6363128 
H    -3.6968706   -4.7107186    0.4431969 
C    -2.7507505   -5.5540546   -1.4294647 
H    -2.1892277   -6.4159595   -1.0638054 
C    -2.8270627   -5.1234959   -2.7967836 
H    -2.3195654   -5.5876615   -3.6442517 
C    -3.6646965   -3.9585541   -2.8509874 
H    -3.9044076   -3.3743108   -3.7420264 
C    -0.3825050   -3.2375060    1.1191051 
C     0.3214981   -2.3578965    1.9880947 
C     0.5064125   -2.7567190    3.3333114 
H     1.0325541   -2.1029651    4.0324791 
C     0.0474008   -3.9895482    3.8111966 
H     0.2079231   -4.2574380    4.8603152 
C    -0.5960187   -4.8741517    2.9372445 
H    -0.9442374   -5.8506687    3.2887607 
C    -0.8049671   -4.4909094    1.6097633 
H    -1.3211435   -5.1572767    0.9144491 
C    -1.9418366    2.0355892    0.9089225 
C    -3.0378614    2.0582308    1.7887449 
H    -3.8296459    1.3092133    1.7305422 
C    -3.1098670    3.0456884    2.7836859 
C    -2.1469151    4.0628991    2.8674611 
H    -2.2210086    4.8321514    3.6404382 
C    -1.0827875    4.0683268    1.9566696 
C    -0.9693678    3.0488403    1.0053462 
H    -0.0976433    3.0232096    0.3431568 
C    -2.6484178    1.4763829   -1.7775967 
C    -3.3965963    0.6537692   -2.6357928 
H    -3.4490516   -0.4261925   -2.4893508 
C    -4.1118776    1.1940745   -3.7123066 
C    -4.1217863    2.5720225   -3.9433762 
H    -4.6691892    2.9911593   -4.7908426 
C    -3.3928431    3.4023621   -3.0779884 
C    -2.6586676    2.8665889   -2.0126768 
H    -2.0837489    3.5467340   -1.3778306 
C    -2.4119406   -0.9087050   -0.1134759 
H    -3.3729039   -0.8788117   -0.6496152 
C    -2.7232613   -1.2653572    1.3483726 
H    -2.9039153   -2.3503356    1.4155494 
H    -1.9041213   -1.0180253    2.0383622 
H    -3.6347201   -0.7503304    1.6882131 
C    -4.8119299    0.2200429   -4.6345020 
F    -5.5869888    0.8342142   -5.5453382 
F    -3.9012078   -0.5396543   -5.3066496 
F    -5.5850223   -0.6480448   -3.9327080 
C    -3.3609098    4.8960799   -3.3257478 
F    -2.1985544    5.4395740   -2.8742253 
F    -3.4519461    5.1723947   -4.6474853 
F    -4.3719188    5.5362147   -2.7025981 
C    -4.1929773    2.9603252    3.8401176 
F    -4.5512003    4.1785233    4.2921443 
F    -5.2989370    2.3390936    3.3734132 
F    -3.7484168    2.2444835    4.9067905 
C    -0.0433144    5.1691068    1.9671559 
F     0.0247132    5.7914233    3.1603964 
F     1.1980618    4.6683252    1.6925406 
F    -0.3042881    6.0998105    1.0238573 
H     1.8632144   -0.4148650    3.7173498 
C     0.0963237    1.3171939    4.9357460 
C    -0.0717629    0.5412521    3.6158466 
C     1.3004803    0.2074643    2.9967078 
C     2.1207598    1.4890386    2.7678995 
C     2.2988589    2.2715859    4.0822137 
C     0.9494460    2.5826487    4.7503771 
H     0.5741447    0.6553563    5.6846706 
H    -0.9009175    1.5797677    5.3322166 
H    -0.6481737    1.1527753    2.9015747 
H    -0.6562626   -0.3777856    3.7960828 
H     3.1067732    1.2369725    2.3422287 
H     1.5990558    2.1235994    2.0267580 
H     2.9249245    1.6739597    4.7735175 
H     2.8504946    3.2079069    3.8822788 
H     0.3947654    3.3028124    4.1226459 
H     1.1115906    3.0803531    5.7228595 
H     3.4846210   -0.5783045    0.7716241 
C     4.2997968   -3.0593764   -0.3275934 
C     2.8983510   -2.5174202    0.0070731 
C     2.9336791   -1.4639118    1.1370378 
C     3.6605504   -2.0043147    2.3828544 
C     5.0738575   -2.4980389    2.0141760 
C     5.0191497   -3.5813044    0.9257951 
H     4.9060506   -2.2544822   -0.7800087 
H     4.2108047   -3.8573064   -1.0872032 
H     2.2600599   -3.3606179    0.3314243 
H     2.4201396   -2.0877890   -0.8941442 
H     3.7339180   -1.2232145    3.1604829 
H     3.0862259   -2.8459789    2.8137095 
H     5.6746745   -1.6401550    1.6538056 
H     5.5754092   -2.8828837    2.9201917 
H     4.4806295   -4.4662391    1.3189043 
H     6.0385846   -3.9201639    0.6680342 
