124
Energy =
C     2.0171836    2.7945338   -0.8324809 
C     0.8376325    3.3781556   -0.3174386 
C     0.4829310    3.2474884    1.0513552 
H     0.1388071    3.8621072   -1.0113832 
Pd    0.5853532    1.2085682    0.0202200 
P    -0.7242966   -0.0541896    1.5178821 
P     0.9210847   -0.5959755   -1.4549148 
H     2.8097730    2.5563521   -0.1066703 
H     1.3073699    3.0734132    1.7573348 
C     3.4790959    3.2692010   -4.8545716 
C     4.3652084    3.0807529   -3.7841547 
C     3.8717638    2.9231704   -2.4826417 
C     2.4836896    2.9589196   -2.2207253 
C     1.6042309    3.1751169   -3.3077942 
C     2.0961097    3.3214087   -4.6083540 
H     3.8615205    3.3839320   -5.8738453 
H     5.4451463    3.0540926   -3.9626904 
H     4.5687354    2.7755588   -1.6502769 
H     0.5246052    3.2115672   -3.1365685 
H     1.3978816    3.4780306   -5.4372640 
C    -2.9652048    5.1444591    2.8125519 
C    -2.9371185    4.8886010    1.4316199 
C    -1.8350537    4.2518563    0.8513619 
C    -0.7178726    3.8763818    1.6347032 
C    -0.7545063    4.1579967    3.0206178 
C    -1.8674827    4.7755126    3.6043878 
H    -3.8326145    5.6357747    3.2646564 
H    -3.7839702    5.1835519    0.8034322 
H    -1.8489350    4.0366850   -0.2222746 
H     0.1100106    3.9040194    3.6423816 
H    -1.8709147    4.9833841    4.6794629 
Fe   -1.0972919   -3.6742913    1.5123276 
C    -1.1955700   -1.7167472    0.9032293 
C    -0.4046233   -2.5272971   -0.0188376 
C    -1.2518391   -3.5862430   -0.5073642 
C    -2.5418529   -3.4591773    0.0970382 
C    -2.5104273   -2.3297892    0.9735238 
C    -0.4704976   -3.8715929    3.4606796 
C    -1.7484500   -4.4917385    3.2719086 
C    -1.6033599   -5.4986774    2.2588403 
C    -0.2354620   -5.4962500    1.8202825 
C     0.4660783   -4.4880081    2.5621031 
C     0.9948862   -2.2415257   -0.5041707 
H    -0.9536761   -4.3820327   -1.1905167 
H    -3.3882253   -4.1329651   -0.0466816 
H    -3.3454829   -1.9952831    1.5859480 
H    -0.2484987   -3.0773323    4.1731052 
H    -2.6699630   -4.2381816    3.7989419 
H    -2.3980656   -6.1398474    1.8730833 
H     0.1896722   -6.1428823    1.0502736 
H     1.5269538   -4.2473432    2.4709769 
H     1.6275986   -1.9785691    0.3596190 
C     1.6244316   -3.4597249   -1.2024272 
H     1.5547259   -4.3242778   -0.5192067 
H     1.1097228   -3.7238368   -2.1393310 
H     2.6870224   -3.2942203   -1.4329570 
H    -1.9882385    1.8320333    2.1738323 
C    -4.3890397    1.0693100    3.3876495 
C    -3.0880391    0.2754859    3.1658201 
C    -2.3286944    0.8079973    1.9283426 
C    -3.2061423    0.9182164    0.6560033 
C    -4.5319237    1.6486760    0.9327829 
C    -5.2770534    1.0459173    2.1336385 
H    -4.1343958    2.1184070    3.6355854 
H    -4.9286192    0.6553330    4.2583090 
H    -3.3324207   -0.7952608    3.0533846 
H    -2.4467738    0.3515211    4.0612468 
H    -2.6302919    1.4457489   -0.1288211 
H    -3.4248488   -0.0883920    0.2561645 
H    -4.3203776    2.7119808    1.1441316 
H    -5.1618464    1.6197599    0.0252413 
H    -5.5689739    0.0003532    1.9080828 
H    -6.2137662    1.6016639    2.3171061 
H    -0.4962470   -0.9984710    3.7118223 
C     1.1311764    0.7018999    5.2500435 
C     0.3897597    0.9763468    3.9287566 
C     0.1696565   -0.3258861    3.1378925 
C     1.5128176   -1.0415581    2.8884874 
C     2.2743719   -1.2998172    4.2005679 
C     2.4743086   -0.0031928    5.0014518 
H     0.4949534    0.0691815    5.8995996 
H     1.2865814    1.6526321    5.7911554 
H     0.9976443    1.6615598    3.3102230 
H    -0.5669584    1.4887331    4.1264548 
H     1.3222676   -1.9895470    2.3582661 
H     2.1305156   -0.4070187    2.2196318 
H     1.7061505   -2.0240157    4.8164512 
H     3.2466202   -1.7752580    3.9777923 
H     3.1421038    0.6761784    4.4349437 
H     2.9806017   -0.2174796    5.9591996 
H    -1.3953270   -0.8105980   -1.6748878 
C    -2.2672532   -1.8289376   -4.0305024 
C    -0.8299737   -1.8400232   -3.4760865 
C    -0.6443600   -0.6750416   -2.4802548 
C    -0.9456045    0.6811504   -3.1530733 
C    -2.3684139    0.6914605   -3.7409460 
C    -2.5957287   -0.4859217   -4.7035046 
H    -2.9752889   -2.0124455   -3.1981190 
H    -2.3952457   -2.6607222   -4.7463445 
H    -0.1186817   -1.7384724   -4.3135999 
H    -0.6210917   -2.8057760   -2.9898671 
H    -0.8361910    1.4919969   -2.4076162 
H    -0.2038693    0.8731770   -3.9522247 
H    -3.0958219    0.6298930   -2.9069868 
H    -2.5541334    1.6526070   -4.2538184 
H    -1.9478161   -0.3589040   -5.5932224 
H    -3.6378521   -0.4836713   -5.0697220 
H     2.4290481    0.6077276   -2.8312921 
C     3.9076492   -1.1053734   -4.4859761 
C     2.5594492   -1.3166653   -3.7713801 
C     2.4665063   -0.4461136   -2.4973715 
C     3.6992540   -0.5902771   -1.5662603 
C     5.0310909   -0.4515979   -2.3268886 
C     5.0900562   -1.3830460   -3.5464311 
H     3.9658582   -0.0600540   -4.8481661 
H     3.9530615   -1.7566231   -5.3771962 
H     2.4422575   -2.3869302   -3.5298297 
H     1.7371027   -1.0505957   -4.4557945 
H     3.6355243    0.1647995   -0.7596045 
H     3.6837156   -1.5780436   -1.0696645 
H     5.1455178    0.5904414   -2.6733418 
H     5.8678916   -0.6540289   -1.6342055 
H     5.0585897   -2.4403616   -3.2145291 
H     6.0472320   -1.2486602   -4.0808383 
