122
Energy =
C     0.3599250   -2.7994582    1.5433703 
C     0.7046473   -1.9968332    2.6703191 
C    -0.2689477   -1.2126374    3.3273690 
H     1.7570782   -1.9003708    2.9622332 
Pd    0.0314355   -0.6155858    1.0916334 
P    -0.0536357    1.7193098    1.4632013 
P     0.1043838   -0.8925346   -1.2284146 
H    -0.6759195   -3.1622041    1.4987406 
H    -1.3227563   -1.4550598    3.1220329 
C     3.1290245   -5.2994510   -0.5991968 
C     3.6123034   -4.2210079    0.1609269 
C     2.7254842   -3.3779914    0.8377036 
C     1.3304086   -3.6136691    0.7890950 
C     0.8572686   -4.6934068    0.0074502 
C     1.7474633   -5.5243780   -0.6836881 
H     3.8273560   -5.9473732   -1.1363464 
H     4.6888437   -4.0300822    0.2132708 
H     3.1248611   -2.5268189    1.3994207 
H    -0.2188601   -4.8926681   -0.0315414 
H     1.3626631   -6.3573810   -1.2807279 
C     0.2773717    1.1101711    6.8979518 
C    -0.9793619    1.0343988    6.2794157 
C    -1.1396139    0.2807992    5.1120609 
C    -0.0448866   -0.4003080    4.5294177 
C     1.2170482   -0.3103876    5.1637018 
C     1.3723010    0.4318230    6.3365590 
H     0.4044189    1.6905015    7.8176399 
H    -1.8398766    1.5540465    6.7129506 
H    -2.1260221    0.2137629    4.6438463 
H     2.0834934   -0.8305760    4.7462807 
H     2.3544077    0.4842061    6.8164234 
Fe   -3.0059774    2.3102683   -2.7075161 
C    -1.6432658    1.1384728   -1.7880883 
C    -1.7173819    2.4251501   -1.1143590 
C    -3.0851978    2.6222276   -0.7021344 
H    -3.4587629    3.5018990   -0.1763615 
C    -3.8405636    1.4595366   -1.0606035 
H    -4.9088911    1.3138493   -0.8917123 
C    -2.9613679    0.5441789   -1.7278141 
H    -3.2471934   -0.4147849   -2.1649394 
C    -2.8314873    2.0519773   -4.7274589 
H    -2.2651704    1.2658127   -5.2311468 
C    -2.3311485    3.3424193   -4.3482436 
H    -1.3216297    3.7146257   -4.5319978 
C    -3.3956346    4.0599154   -3.7021944 
H    -3.3400851    5.0698071   -3.2913581 
C    -4.5541329    3.2143344   -3.6893049 
H    -5.5233495    3.4607581   -3.2520209 
C    -4.2062395    1.9740622   -4.3223755 
H    -4.8645948    1.1124862   -4.4485994 
C    -0.5715972    3.3296968   -0.8290539 
C     0.3446130    3.0410479    0.2224016 
C     1.4974108    3.8395111    0.3758528 
H     2.2173013    3.6171940    1.1676153 
C     1.7282710    4.9377881   -0.4646436 
H     2.6324141    5.5402174   -0.3308807 
C     0.7877658    5.2725643   -1.4460151 
H     0.9417035    6.1473556   -2.0860749 
C    -0.3468378    4.4695962   -1.6207672 
H    -1.0745797    4.6983011   -2.4016888 
C     1.8487635   -1.2885103   -1.6648880 
C     2.3149065   -2.3548844   -2.4542887 
H     1.6320502   -3.0733190   -2.9108293 
C     3.6937973   -2.5437013   -2.6262948 
C     4.6259557   -1.7056045   -1.9959605 
H     5.6987752   -1.8830461   -2.1088074 
C     4.1597524   -0.6586667   -1.1918996 
C     2.7858590   -0.4418411   -1.0428507 
H     2.4407423    0.3829716   -0.4108826 
C    -0.9525775   -2.2789911   -1.8135359 
C    -1.9236004   -2.7886981   -0.9385761 
H    -2.0471665   -2.3373380    0.0503794 
C    -2.7278456   -3.8718317   -1.3161198 
C    -2.5890701   -4.4528534   -2.5833047 
H    -3.1988522   -5.3125081   -2.8711080 
C    -1.6586620   -3.9089347   -3.4806115 
C    -0.8575654   -2.8191815   -3.1094997 
H    -0.1577135   -2.4068224   -3.8427655 
C    -0.4431350    0.4837145   -2.4221406 
H    -0.8043292   -0.0758046   -3.3032360 
C     0.7010141    1.4003301   -2.8777072 
H     0.2757039    2.2162625   -3.4841436 
H     1.2479563    1.8596630   -2.0404146 
H     1.4210756    0.8387060   -3.4946591 
C    -3.6825342   -4.4303606   -0.2850434 
F    -4.4593188   -5.4117313   -0.7745094 
F    -2.9838975   -4.9384788    0.7711659 
F    -4.4863015   -3.4603008    0.2143799 
C    -1.4913474   -4.4762279   -4.8761854 
F    -1.9509454   -3.6079116   -5.8081914 
F    -0.1794293   -4.6915961   -5.1457088 
F    -2.1478347   -5.6418171   -5.0330775 
C     4.2028436   -3.6750513   -3.4967923 
F     4.6627707   -3.2107723   -4.6798062 
F     5.2295296   -4.3271828   -2.8956811 
F     3.2363938   -4.5838723   -3.7602827 
C     5.1068996    0.1779750   -0.3634444 
F     4.7076142    1.4702652   -0.2937844 
F     5.1313977   -0.2867354    0.9260401 
F     6.3688416    0.1471186   -0.8241693 
C     3.4196667    2.5590702    4.4462929 
C     3.5765132    1.6641765    3.3770027 
C     2.4900981    1.3881557    2.5375043 
C     1.2439853    2.0217047    2.7382863 
C     1.0878675    2.8982947    3.8271663 
C     2.1727825    3.1588930    4.6770556 
H     4.2647459    2.7788604    5.1068585 
H     4.5394443    1.1805821    3.1863380 
H     2.6153609    0.6779235    1.7131366 
H     0.1215139    3.3689853    4.0261106 
H     2.0383733    3.8354028    5.5272277 
C    -4.1695434    3.1643798    3.0658702 
C    -3.1288972    4.0920325    2.8936186 
C    -1.8801517    3.6697512    2.4183418 
C    -1.6590071    2.3060586    2.1317207 
C    -2.7135944    1.3867607    2.2836934 
C    -3.9638015    1.8127048    2.7518494 
H    -5.1459241    3.4996744    3.4308330 
H    -3.2937623    5.1504233    3.1206668 
H    -1.0848631    4.4035103    2.2481142 
H    -2.5574124    0.3396452    2.0007175 
H    -4.7806084    1.0914752    2.8592129 
