110
Energy =
C    -1.9888121   -0.0934440   -2.3354228 
C    -0.7518905    0.0248463   -3.0242013 
C     0.1672438   -1.0437385   -3.0783305 
H    -0.4772518    0.9896629   -3.4675714 
Pd   -0.2357497   -0.3061541   -0.8824688 
P     1.9358499   -0.5066324   -0.0002012 
P    -1.4486383    0.1049050    1.1384478 
H    -2.3921445   -1.1085994   -2.2224504 
H    -0.2231855   -2.0463626   -2.8504766 
C    -4.9618256    3.0209331   -2.3180856 
C    -3.6033850    3.3531410   -2.4581941 
C    -2.6270647    2.3527447   -2.4455375 
C    -2.9877162    0.9896592   -2.3091731 
C    -4.3588307    0.6715765   -2.1762994 
C    -5.3350291    1.6765437   -2.1780361 
H    -5.7234092    3.8071455   -2.3215486 
H    -3.3053118    4.4009689   -2.5673758 
H    -1.5707053    2.6323961   -2.5200205 
H    -4.6611218   -0.3783952   -2.0909153 
H    -6.3915480    1.4075466   -2.0775387 
C     3.9031124   -1.0968919   -5.2165502 
C     3.3229835    0.1336250   -4.8630078 
C     2.1019809    0.1697549   -4.1835026 
C     1.4338699   -1.0268035   -3.8272420 
C     2.0178255   -2.2559027   -4.2167648 
C     3.2386069   -2.2911775   -4.9013488 
H     4.8613602   -1.1218265   -5.7452253 
H     3.8272094    1.0708565   -5.1203736 
H     1.6750745    1.1380906   -3.9112368 
H     1.5037872   -3.1937277   -3.9822559 
H     3.6706568   -3.2543707   -5.1911227 
Fe    1.0985878   -0.6080051    3.2947682 
C    -0.5709819    0.3425305    2.7286752 
C     0.4908965    1.2944740    2.9871827 
H     0.9064569    2.0001817    2.2708302 
C     0.9176258    1.1479624    4.3462112 
H     1.7226765    1.7085007    4.8241502 
C     0.1303447    0.1182501    4.9525985 
H     0.2290543   -0.2509765    5.9748243 
C    -0.7853071   -0.3823019    3.9709656 
C     2.0784093   -1.2284625    1.6643361 
C     1.2114911   -2.2718460    2.1756525 
H     0.3742069   -2.7198138    1.6384402 
C     1.6152778   -2.5774220    3.5159032 
H     1.1351672   -3.2988239    4.1793718 
C     2.7262449   -1.7359054    3.8497508 
H     3.2421218   -1.7057254    4.8110562 
C     3.0206525   -0.9072715    2.7184553 
H    -1.5016076   -1.1866348    4.1399760 
H     3.8121807   -0.1577294    2.6759241 
C     2.8286845    1.1651890    0.1364705 
C     4.0895619    1.0133491   -0.7496650 
C     4.5496713   -0.4487273   -0.6741082 
C     3.3177817   -1.3229766   -0.9880453 
H     3.1470599    1.1888078    1.1939090 
H     3.8444521    1.2561992   -1.7991319 
H     4.8797489    1.7131248   -0.4265390 
H     5.3654100   -0.6608887   -1.3888424 
H     4.9359135   -0.6722887    0.3374786 
H     3.0183141   -1.0973593   -2.0268569 
C    -2.6790244   -1.2593270    1.6078576 
C    -3.7900899   -0.4368750    2.3048542 
C    -4.0859611    0.7897207    1.4292915 
C    -2.7450138    1.4868989    1.0655752 
H    -2.1698607   -1.9291263    2.3242274 
H    -4.6912571   -1.0466064    2.4847621 
H    -3.4309397   -0.1042892    3.2944305 
H    -4.5915655    0.4734442    0.5007771 
H    -4.7702330    1.4926234    1.9344642 
H    -2.7627399    1.7653516    0.0005571 
C    -2.4119783    2.7888811    1.8571137 
H    -1.3289751    2.9822731    1.7264007 
C    -3.1415535   -2.1271103    0.4052491 
H    -3.4160114   -1.4456247   -0.4211809 
C     1.9690077    2.4390484   -0.0950814 
C     3.5106165   -2.8633188   -0.9048800 
H     4.0771416   -3.1092863   -1.8253006 
H     1.0155139    2.2827250    0.4440859 
C    -3.1647685    3.9738955    1.2204932 
H    -2.9392475    4.9122627    1.7565814 
H    -2.8875267    4.1033778    0.1608286 
H    -4.2581750    3.8172995    1.2632777 
C    -2.7027351    2.7265733    3.3670915 
H    -2.3817210    3.6667754    3.8476827 
H    -3.7844643    2.6151298    3.5606228 
H    -2.1761201    1.9003782    3.8687273 
C    -4.3876973   -2.9681450    0.7420683 
H    -4.2139025   -3.5956696    1.6355174 
H    -5.2760958   -2.3426275    0.9296331 
H    -4.6293254   -3.6411528   -0.0988147 
C    -2.0071815   -3.0459311   -0.0789609 
H    -2.3014240   -3.5995295   -0.9877547 
H    -1.0883681   -2.4688517   -0.3199350 
H    -1.7450781   -3.7876735    0.6978084 
C     2.1781684   -3.6319738   -0.9748823 
H     2.3567897   -4.7002226   -1.1869056 
H     1.6351220   -3.5733071   -0.0173270 
H     1.5168361   -3.2336824   -1.7597103 
C     4.3517433   -3.3520702    0.2881430 
H     5.3620159   -2.9095016    0.2914132 
H     3.8698720   -3.1203679    1.2526469 
H     4.4734392   -4.4478739    0.2299717 
C     1.5839682    2.6891534   -1.5581740 
H     0.8847688    3.5403291   -1.6283051 
H     2.4598800    2.9216055   -2.1882993 
H     1.0763098    1.8001386   -1.9719882 
C     2.6636557    3.6694584    0.5169972 
H     2.0297301    4.5675585    0.4160305 
H     2.8753658    3.5204033    1.5914473 
H     3.6230524    3.8790586    0.0111601 
