86
Energy =
C     0.4305068    1.6011874   -2.5365354 
C    -0.2694301    2.4940082   -1.6777795 
C     0.3508000    3.0127780   -0.5191209 
H    -1.3309976    2.6990232   -1.8644954 
Pd    0.2081330    0.7192703   -0.4620698 
P    -0.2994720    0.4728678    1.8291112 
P     0.7186307   -1.5208313   -1.0697557 
H     1.5254831    1.6925145   -2.5583586 
H     1.4509029    2.9854064   -0.4907888 
C    -1.2949561   -0.1288746   -6.0781574 
C    -2.1136718    0.1560304   -4.9714442 
C    -1.5637689    0.7181422   -3.8152860 
C    -0.1806700    1.0127483   -3.7420630 
C     0.6281372    0.7265314   -4.8644372 
C     0.0763088    0.1606457   -6.0212742 
H    -1.7264830   -0.5737321   -6.9804847 
H    -3.1838773   -0.0720411   -5.0090259 
H    -2.2045355    0.8986472   -2.9447394 
H     1.6981215    0.9609985   -4.8295143 
H     0.7186500   -0.0517513   -6.8820382 
C    -1.3443670    5.7777634    2.3023875 
C     0.0462104    5.6348719    2.1833958 
C     0.5814318    4.7365841    1.2521099 
C    -0.2619025    3.9656298    0.4186890 
C    -1.6616682    4.1361286    0.5362882 
C    -2.1953668    5.0285621    1.4708296 
H    -1.7657603    6.4741468    3.0343689 
H     0.7157650    6.2225684    2.8195653 
H     1.6677587    4.6195922    1.1707372 
H    -2.3399174    3.5546899   -0.0962253 
H    -3.2811468    5.1426421    1.5536989 
Fe    0.4810500   -2.7907075    2.0453110 
C     0.2292530   -2.8608319    0.0601539 
C    -1.0510580   -2.9419068    0.7281678 
H    -1.8762534   -2.2400594    0.6029597 
C    -1.0414250   -4.0889044    1.5861562 
H    -1.8529352   -4.3994872    2.2463905 
C     0.2291044   -4.7369995    1.4507064 
H     0.5568456   -5.6269327    1.9909153 
C     1.0159630   -3.9934057    0.5113804 
C     0.5077663   -0.8998793    2.7031824 
C     1.8527451   -1.3479868    2.4115760 
H     2.5248775   -0.8914067    1.6821716 
C     2.1323628   -2.4918004    3.2274512 
H     3.0540407   -3.0761838    3.2153288 
C     0.9785804   -2.7570570    4.0357091 
H     0.8678902   -3.5789622    4.7453082 
C    -0.0240137   -1.7804018    3.7254557 
H     2.0366859   -4.2369685    0.2138775 
H    -1.0193018   -1.7336112    4.1698497 
C    -2.1468449    0.2279725    2.1569004 
C    -2.4966667    1.2292698    3.2947999 
C    -1.2278325    1.5675243    4.0940845 
C    -0.1257252    1.8773006    3.0619960 
H    -2.2342826   -0.8099465    2.5233656 
H    -2.8847759    2.1589965    2.8385283 
H    -3.2989447    0.8220141    3.9345776 
H    -1.3875498    2.4341705    4.7608284 
H    -0.9220272    0.7193170    4.7353068 
H    -0.4286900    2.7805405    2.5068888 
C     2.5776284   -1.7983889   -1.2596030 
C     2.6705541   -2.8213005   -2.4172958 
C     1.6359476   -2.4152293   -3.4801836 
C     0.2650010   -2.1905601   -2.7900414 
H     2.9276289   -2.2300465   -0.3063363 
H     3.6950404   -2.8529574   -2.8304272 
H     2.4415885   -3.8359675   -2.0442534 
H     1.9541308   -1.4802483   -3.9737566 
H     1.5446867   -3.1765676   -4.2749950 
H    -0.2901648   -1.3936005   -3.3065681 
C    -0.6159987   -3.4486927   -2.7435905 
H    -0.1040064   -4.2984751   -2.2609059 
H    -1.5570473   -3.2695971   -2.1968459 
C     3.3595311   -0.5030970   -1.5315083 
H     3.1977249    0.2423421   -0.7322875 
H     4.4402032   -0.7227534   -1.5848372 
C    -3.0284679    0.3945357    0.9105809 
H    -4.0906168    0.2460138    1.1749015 
H    -2.7683885   -0.3260207    0.1156083 
C     1.2867963    2.0723182    3.6145864 
H     1.3038623    2.9375201    4.3004076 
H     2.0111475    2.2728771    2.8052334 
H     1.6295871    1.1838549    4.1731271 
H    -2.9245045    1.4085433    0.4880436 
H     3.0657004   -0.0417341   -2.4900224 
H    -0.8752510   -3.7431833   -3.7759457 
