112
Energy =
C     2.6695223    1.3454161   -1.7764997 
C     1.5849648    1.3850079   -2.6773400 
C     0.4329971    2.1979828   -2.4577463 
H     1.5616689    0.6756294   -3.5146925 
Pd    0.6513304    0.7224107   -0.7943979 
P    -1.5182296    0.6226731    0.0850325 
P     1.4103755   -0.7179028    0.8929973 
H     2.7590025    2.1793641   -1.0639208 
H     0.5730214    3.1250939   -1.8819794 
C     6.3042413   -0.8966650   -2.3207318 
C     6.0634060   -0.2046449   -1.1241899 
C     4.8779727    0.5178029   -0.9587577 
C     3.8963856    0.5548616   -1.9764808 
C     4.1556514   -0.1486168   -3.1767955 
C     5.3476071   -0.8596615   -3.3476551 
H     7.2348775   -1.4571987   -2.4553140 
H     6.8019575   -0.2278516   -0.3168434 
H     4.7033110    1.0545595   -0.0211170 
H     3.4327974   -0.1216957   -3.9982650 
H     5.5351379   -1.3833282   -4.2908393 
C    -2.6039099    2.3492138   -5.5108478 
C    -2.0905339    1.1084282   -5.0979467 
C    -1.1284833    1.0476171   -4.0830614 
C    -0.6607935    2.2261594   -3.4565557 
C    -1.2063049    3.4638573   -3.8631865 
C    -2.1602608    3.5253693   -4.8874050 
H    -3.3531000    2.3972362   -6.3074085 
H    -2.4427041    0.1850841   -5.5697258 
H    -0.7400332    0.0757002   -3.7572849 
H    -0.8560082    4.3880523   -3.3899862 
H    -2.5608378    4.4956904   -5.1981210 
Fe   -0.3269871   -3.8270365    1.0714468 
C     0.1843112   -1.9056029    1.5184809 
C    -1.2257716   -1.9785755    1.1554370 
C    -1.8509613   -2.8944628    2.0729065 
C    -0.8643007   -3.3962987    2.9820696 
C     0.3963304   -2.8101984    2.6349537 
C    -0.9088657   -5.7606040    0.7359616 
C    -0.9843596   -5.0089777   -0.4819776 
C     0.3204852   -4.4831530   -0.7610053 
C     1.2077809   -4.9197214    0.2823685 
C     0.4468789   -5.7106147    1.2036283 
C     1.9378315    0.2663060    2.3683811 
C     2.7190990    1.4167007    2.1253633 
C     3.2087651    2.1899330    3.1846667 
C     2.9206026    1.8276048    4.5097567 
C     2.1260750    0.7011837    4.7625016 
C     1.6293681   -0.0717554    3.7011126 
C     2.8670259   -1.7596824    0.5001264 
C     2.9911339   -2.2551190   -0.8122337 
C     4.0332000   -3.1309031   -1.1372630 
C     4.9640873   -3.5076232   -0.1560497 
C     4.8558006   -2.9995854    1.1474213 
C     3.8134070   -2.1210336    1.4776978 
C    -1.9805488   -1.1991356    0.0982912 
H    -2.9054461   -3.1783168    2.0518884 
H    -1.0320995   -4.1361652    3.7669468 
H     1.3566555   -3.0190677    3.1103818 
H    -1.7411018   -6.2636855    1.2317654 
H    -1.8826835   -4.8700659   -1.0849795 
H     0.5957731   -3.8670175   -1.6173976 
H     2.2669915   -4.6758438    0.3710133 
H     0.8246752   -6.1639196    2.1220989 
H     2.9364496    1.7116197    1.0946929 
H     0.9907379   -0.9306542    3.9194265 
H     2.2695729   -1.9455015   -1.5765029 
H     3.7381923   -1.7171286    2.4930888 
H     3.8129741    3.0785124    2.9747002 
H     1.8797641    0.4222758    5.7922326 
H     4.1267925   -3.5101811   -2.1591630 
H     5.5877679   -3.2843298    1.9104426 
H     3.3032502    2.4293938    5.3402800 
H     5.7820097   -4.1889463   -0.4117125 
H    -3.0460005   -1.2450951    0.3811683 
C    -1.8356154   -1.7372701   -1.3395985 
H    -2.4000711   -1.1204575   -2.0603225 
H    -0.7744446   -1.7441080   -1.6426901 
H    -2.2197877   -2.7664290   -1.3916902 
H    -2.5993047    1.2001627   -1.9329677 
H    -0.9380377    0.3889066    2.3573451 
C    -4.1980125    3.5944756   -1.3477194 
C    -2.9133025    2.9687835   -0.7353597 
C    -2.9020683    1.4266464   -0.8928531 
C    -4.3331084    0.8756895   -0.6946384 
C    -5.2367617    1.3361127   -1.8696989 
C    -4.8013839    2.7043149   -2.4423733 
H    -3.9642027    4.5974865   -1.7448003 
H    -4.9491054    3.7440957   -0.5494011 
H    -2.8652017    3.2410116    0.3313870 
H    -2.0096575    3.3852178   -1.2113558 
H    -4.3552202   -0.2247304   -0.6338325 
H    -4.7337233    1.2490355    0.2637460 
H    -5.2140884    0.5777796   -2.6733313 
H    -6.2806721    1.3831167   -1.5112076 
H    -5.6591527    3.2069702   -2.9218847 
H    -4.0492174    2.5540373   -3.2355408 
C    -2.8369761    1.4294124    4.0434125 
C    -2.9553974    1.1188638    2.5391441 
C    -1.5641748    1.1649857    1.8720248 
C    -0.8564533    2.5210418    2.1070477 
C    -0.7717077    2.8371768    3.6105884 
C    -2.1547291    2.7868984    4.2807678 
H    -2.2467437    0.6284465    4.5311098 
H    -3.8402290    1.4116666    4.5055786 
H    -3.6179271    1.8683417    2.0674082 
H    -3.4251897    0.1302903    2.3884771 
H     0.1546500    2.4944620    1.6617148 
H    -1.4087060    3.3297372    1.5963266 
H    -0.1029483    2.1009426    4.0923963 
H    -0.3051405    3.8282701    3.7536131 
H    -2.7944404    3.5921844    3.8679935 
H    -2.0614391    2.9832589    5.3638373 
