124
Energy =
C     3.0833664   -0.9683641    0.1288422 
C     3.1219825    0.3018837   -0.4871461 
C     2.8281425    1.4800141    0.2593155 
H     3.2892134    0.3814743   -1.5691513 
Pd    1.0443950    0.1237227    0.1818057 
P    -0.6903540    1.6095087    0.7729920 
P    -0.4756626   -1.6460178   -0.3257007 
H     3.1626345   -0.9804626    1.2263669 
H     3.0538284    1.4523501    1.3352232 
C     4.1964306   -4.7151590   -1.6685989 
C     4.2183551   -4.5484689   -0.2762297 
C     3.8338481   -3.3274521    0.2918881 
C     3.4392058   -2.2394349   -0.5203564 
C     3.4436828   -2.4167760   -1.9249052 
C     3.8086335   -3.6421832   -2.4897765 
H     4.4889141   -5.6712698   -2.1141222 
H     4.5351551   -5.3729913    0.3704915 
H     3.8468507   -3.2061413    1.3809698 
H     3.1540900   -1.5921992   -2.5821252 
H     3.7998354   -3.7609913   -3.5782367 
C     2.9814424    5.3903496   -1.5407500 
C     2.4190667    4.3142663   -2.2491007 
C     2.3656516    3.0422268   -1.6705343 
C     2.8667556    2.8186304   -0.3677617 
C     3.4371923    3.9057793    0.3291726 
C     3.4968724    5.1791684   -0.2535160 
H     3.0189496    6.3868308   -1.9923286 
H     2.0125826    4.4722682   -3.2535972 
H     1.8983742    2.2150335   -2.2163450 
H     3.8413449    3.7483614    1.3353930 
H     3.9448118    6.0099141    0.3014118 
Fe   -0.8452590   -0.4532664    3.5409120 
C    -1.6324607    0.6844180    2.0328759 
C    -2.0619137   -0.7037552    1.8952694 
C    -2.7454023   -1.0544176    3.1139375 
C    -2.7567724    0.0799261    3.9858518 
C    -2.0736837    1.1515480    3.3299377 
C     1.1419291   -0.0352702    3.9082531 
C     0.3698636    0.0357512    5.1138464 
C    -0.2455679   -1.2455645    5.3190684 
C     0.1360923   -2.1039507    4.2334777 
C     0.9969563   -1.3508224    3.3667487 
C    -2.1216235   -1.5081190    0.6082878 
H    -3.1773966   -2.0288640    3.3436314 
H    -3.1802311    0.1126637    4.9913734 
H    -1.9081778    2.1422015    3.7541501 
H     1.7366305    0.7653393    3.4696222 
H     0.2546607    0.9124187    5.7541565 
H    -0.9123268   -1.5106991    6.1416727 
H    -0.1770134   -3.1395860    4.0944981 
H     1.4653134   -1.7020678    2.4499927 
H    -2.3436449    0.9114191   -0.7822609 
C    -2.3841267    2.5492589   -3.0008970 
C    -1.3225859    2.4362001   -1.8926914 
C    -1.9567239    1.9293660   -0.5779878 
C    -3.1676450    2.7756867   -0.1313752 
C    -4.2077359    2.8593777   -1.2647034 
C    -3.5811273    3.4067332   -2.5580203 
H    -2.7434277    1.5339008   -3.2600464 
H    -1.9240280    2.9621273   -3.9166820 
H    -0.8463489    3.4189755   -1.7368961 
H    -0.5101875    1.7503508   -2.1990656 
H    -3.6169344    2.3383524    0.7787836 
H    -2.8410915    3.7991331    0.1285494 
H    -4.6212903    1.8488595   -1.4552571 
H    -5.0548572    3.4921932   -0.9452553 
H    -3.2428276    4.4480567   -2.3874412 
H    -4.3370824    3.4490309   -3.3620765 
H    -1.4530017    3.4648621    2.0505928 
C    -0.0878242    5.7861091    1.4643345 
C    -0.1412217    4.4657546    0.6711010 
C    -0.4520821    3.2808535    1.6108042 
C     0.5719667    3.2126164    2.7608874 
C     0.6157062    4.5342314    3.5477573 
C     0.9143217    5.7262525    2.6267710 
H    -1.0976692    6.0099916    1.8627660 
H     0.1699584    6.6095386    0.7743624 
H     0.8201752    4.2986226    0.1611756 
H    -0.9100296    4.5544598   -0.1123124 
H     0.3256628    2.3767732    3.4331392 
H     1.5692343    3.0037415    2.3326203 
H    -0.3614821    4.6889920    4.0476441 
H     1.3715216    4.4610527    4.3506932 
H     1.9371147    5.6218659    2.2178822 
H     0.8940999    6.6705442    3.1995102 
H    -1.2287873   -0.1975018   -2.0287632 
C    -2.5792456   -1.4411616   -4.0856932 
C    -2.2664569   -1.9563423   -2.6666549 
C    -0.9966887   -1.2756764   -2.1023936 
C     0.2113081   -1.3847549   -3.0577232 
C    -0.1422395   -0.8767276   -4.4665246 
C    -1.3765236   -1.5990913   -5.0286376 
H    -2.8605136   -0.3715152   -4.0320315 
H    -3.4591375   -1.9777654   -4.4827786 
H    -2.1398205   -3.0497905   -2.7062728 
H    -3.1312555   -1.7588168   -2.0083465 
H     1.0482069   -0.7955999   -2.6382489 
H     0.5590660   -2.4330590   -3.1196338 
H    -0.3464938    0.2115087   -4.4174072 
H     0.7260501   -1.0066359   -5.1374746 
H    -1.1457544   -2.6757672   -5.1530083 
H    -1.6242086   -1.2113815   -6.0326497 
H     1.1952297   -3.2780260   -0.7215093 
C     0.1327192   -5.8313904   -1.1221799 
C    -0.5384725   -4.4473915   -1.2007172 
C     0.1825563   -3.4196150   -0.2965105 
C     0.3621640   -3.9414057    1.1478397 
C     0.9350337   -5.3698087    1.2097726 
C     0.1624959   -6.3516255    0.3206894 
H     1.1682665   -5.7566222   -1.5088161 
H    -0.4076447   -6.5320332   -1.7837133 
H    -1.5967119   -4.5515658   -0.9050268 
H    -0.5258779   -4.1008498   -2.2459170 
H     1.0379396   -3.2667427    1.6910549 
H    -0.6045141   -3.9152425    1.6805088 
H     1.9875536   -5.3459387    0.8764124 
H     0.9415086   -5.7070082    2.2623100 
H    -0.8750223   -6.4658156    0.6933213 
H     0.6269211   -7.3528129    0.3640038 
H    -2.6843650   -0.8632763   -0.0958160 
C    -2.9470807   -2.8003676    0.7444963 
H    -3.0548894   -3.3087011   -0.2248725 
H    -2.4997745   -3.5105587    1.4567964 
H    -3.9595349   -2.5501613    1.1045557 
