90
Energy =
C     2.4908976   -0.9910057    1.2576455 
C     2.8883484    0.0009522    0.3074947 
C     2.8083701    1.3733915    0.5950779 
H     3.2208160   -0.3240547   -0.6867403 
Pd    0.7090201    0.1909373    0.6311387 
P    -0.6655354    1.6047565   -0.7554594 
P    -0.9443227   -1.3326569    1.4076996 
H     2.5999757   -0.7276062    2.3193938 
H     2.6410830    1.6578603    1.6447794 
C     2.8909455   -5.1849828    0.3388876 
C     2.4036826   -4.2959013   -0.6341502 
C     2.2762006   -2.9340520   -0.3402583 
C     2.6297625   -2.4288067    0.9329999 
C     3.1351307   -3.3312490    1.8939405 
C     3.2620306   -4.6956270    1.6002613 
H     2.9854928   -6.2517332    0.1121992 
H     2.1147877   -4.6684500   -1.6227601 
H     1.8561312   -2.2549961   -1.0901090 
H     3.4329556   -2.9580424    2.8795001 
H     3.6560005   -5.3793979    2.3592734 
C     4.4399550    4.5453284   -1.7988354 
C     4.1959363    3.2915308   -2.3869760 
C     3.6534221    2.2511042   -1.6281120 
C     3.3306467    2.4440130   -0.2612137 
C     3.5777920    3.7135265    0.3122007 
C     4.1340271    4.7506247   -0.4453205 
H     4.8710138    5.3560062   -2.3949706 
H     4.4357582    3.1256850   -3.4421968 
H     3.4711338    1.2821161   -2.1048721 
H     3.3393653    3.8790360    1.3688724 
H     4.3270031    5.7220403    0.0209005 
Fe   -1.8786010   -1.3870144   -1.9610416 
C    -1.1105519    0.4756696   -2.1147041 
C    -2.3202897    0.3507870   -2.8999299 
H    -3.2415127    0.9170931   -2.7686161 
C    -2.1227663   -0.6908927   -3.8645143 
H    -2.8675507   -1.0430273   -4.5807734 
C    -0.8017269   -1.2217197   -3.6926474 
H    -0.3617650   -2.0434501   -4.2602175 
C    -0.1738506   -0.5070000   -2.6218563 
C    -1.9313777   -1.9649198   -0.0023150 
C    -1.4147884   -3.0200694   -0.8531580 
H    -0.4326634   -3.4868951   -0.7637485 
C    -2.4167275   -3.3514499   -1.8217605 
H    -2.3192473   -4.0991266   -2.6108759 
C    -3.5469175   -2.4983415   -1.6026897 
H    -4.4635807   -2.4809050   -2.1951018 
C    -3.2531694   -1.6364368   -0.4930200 
C    -0.3621888   -2.9728693    2.1622081 
C    -2.0469656   -0.7190063    2.8285115 
H     0.8378956   -0.6656310   -2.2431112 
H    -3.9205393   -0.8691626   -0.1048955 
C    -2.2939372    2.3097932   -0.1377484 
C     0.2751372    2.9696203   -1.6442369 
H     0.3700198   -3.3531397    1.4302051 
H    -2.2082891   -1.6403300    3.4163281 
H    -2.8717881    1.3778021    0.0164379 
H     1.2692377    2.5022638   -1.7536266 
C    -2.1191471    3.0158244    1.2204152 
H    -3.1016986    3.1500946    1.7062939 
H    -1.4755943    2.4388126    1.9016965 
H    -1.6707640    4.0141773    1.0970430 
C    -3.0735696    3.2184676   -1.1079053 
H    -4.0850441    3.3941190   -0.6995219 
H    -2.5863409    4.2022084   -1.2074409 
H    -3.1854621    2.7938783   -2.1159488 
C     0.4442997    4.2124594   -0.7542562 
H     1.2347222    4.8580855   -1.1726910 
H    -0.4846662    4.8058441   -0.7072519 
H     0.7412673    3.9472145    0.2745631 
C    -0.2189012    3.3181661   -3.0589255 
H     0.5157453    3.9952975   -3.5314166 
H    -0.3101173    2.4225937   -3.6952176 
H    -1.1907532    3.8367031   -3.0495572 
C     0.3582025   -2.7685412    3.5053678 
H     0.8707490   -3.7046480    3.7846843 
H     1.1165413   -1.9712538    3.4622558 
H    -0.3524533   -2.5270292    4.3150031 
C    -1.4960061   -4.0054837    2.3093251 
H    -1.0709636   -4.9435506    2.7090029 
H    -2.2701777   -3.6683341    3.0220733 
H    -1.9872380   -4.2371891    1.3518217 
C    -1.2328747    0.2571611    3.7002491 
H    -1.8043911    0.5040758    4.6125922 
H    -0.2659754   -0.1680745    4.0119779 
H    -1.0226456    1.1961952    3.1635327 
C    -3.4369648   -0.1739325    2.4755648 
H    -3.9190494    0.1945277    3.3986202 
H    -3.3955464    0.6689809    1.7692405 
H    -4.0845048   -0.9588390    2.0554169 
