134
Energy =
C    -0.1991993    1.4895346   -3.0765858 
C     0.7998550    0.4986669   -3.2319298 
C     0.4714679   -0.8812085   -3.2287866 
H     1.8522240    0.8092172   -3.2440670 
Pd   -0.0630109    0.1130482   -1.2451970 
P     0.3216808   -1.6951791    0.2037043 
P    -0.9715515    1.6235487    0.3445273 
H    -1.2243171    1.2204552   -3.3694903 
H    -0.5796128   -1.1391859   -3.4287431 
C     0.7474508    5.6822360   -3.2553208 
C     1.5554301    4.8126038   -2.5037652 
C     1.2391019    3.4532837   -2.4270857 
C     0.1109348    2.9332294   -3.0959967 
C    -0.7037723    3.8187746   -3.8316382 
C    -0.3842443    5.1799709   -3.9144841 
H     0.9958428    6.7466636   -3.3221821 
H     2.4315184    5.1991656   -1.9714869 
H     1.8498099    2.7785412   -1.8213289 
H    -1.5864940    3.4335237   -4.3523068 
H    -1.0251565    5.8524012   -4.4940672 
C     3.1663403   -4.0821647   -4.2158446 
C     1.7821307   -4.2976343   -4.1593541 
C     0.9218978   -3.2541593   -3.8015507 
C     1.4241816   -1.9681444   -3.4982031 
C     2.8243177   -1.7681456   -3.5535448 
C     3.6834675   -2.8129680   -3.9072666 
H     3.8400639   -4.8972466   -4.4990511 
H     1.3700072   -5.2834742   -4.3961229 
H    -0.1588135   -3.4275659   -3.7680309 
H     3.2435832   -0.7813373   -3.3396260 
H     4.7629243   -2.6341151   -3.9572770 
Fe    4.3327798    0.6798434    0.9692829 
C     2.4831291   -0.0259116    0.5441845 
C     2.4173149    1.4214865    0.7104262 
C     3.3651513    2.0016080   -0.2164945 
H     3.5724461    3.0700438   -0.2989172 
C     3.9513223    0.9544296   -0.9999309 
H     4.7030010    1.0785906   -1.7818527 
C     3.4123823   -0.2885364   -0.5336874 
H     3.6842934   -1.2745947   -0.9099802 
C     4.9102115    0.7681508    2.9347118 
H     4.2798790    1.0180571    3.7903947 
C     5.6698407    1.6974343    2.1441062 
H     5.7261556    2.7778935    2.2907346 
C     6.3515901    0.9566062    1.1223708 
H     6.9970543    1.3756816    0.3482865 
C     6.0141687   -0.4299269    1.2796752 
H     6.3580447   -1.2489874    0.6449460 
C     5.1244949   -0.5466492    2.4002123 
H     4.6866075   -1.4740743    2.7749887 
C     1.5939529    2.2843087    1.6088596 
C     0.1781265    2.4249704    1.5603031 
C    -0.4626192    3.2821088    2.4895349 
H    -1.5542832    3.3629399    2.4697801 
C     0.2580291    4.0323042    3.4209769 
H    -0.2693030    4.6861887    4.1227835 
C     1.6565519    3.9377619    3.4366266 
H     2.2463428    4.5231877    4.1496696 
C     2.2990696    3.0734811    2.5479616 
H     3.3861504    2.9746758    2.5670413 
C    -1.1461558   -2.2548892    1.1508773 
C    -1.0419336   -3.1096766    2.2651821 
H    -0.0577207   -3.4075919    2.6430568 
C    -2.1953526   -3.6222663    2.8824512 
C    -3.4511035   -3.2910862    2.3347973 
H    -4.3565174   -3.6924152    2.8068121 
C    -3.5826882   -2.4759115    1.1963889 
C    -2.4123924   -1.9506213    0.6195927 
H    -2.4842112   -1.2917937   -0.2545743 
C     0.8864025   -3.3381959   -0.4392820 
C    -0.1059790   -4.2608992   -0.8403781 
H    -1.1637531   -3.9817855   -0.7875268 
C     0.2343447   -5.5507414   -1.2749487 
C     1.5959777   -5.9103269   -1.3129548 
H     1.8742454   -6.9185770   -1.6424879 
C     2.6072523   -5.0060048   -0.9548730 
C     2.2365817   -3.7163852   -0.5243957 
H     3.0336546   -3.0257693   -0.2361555 
C     1.7659659   -1.1201358    1.3111611 
H     2.4380307   -1.9936339    1.3348794 
C     1.4512400   -0.7535208    2.7672884 
H     2.4051401   -0.5919408    3.2942426 
H     0.8836934    0.1826277    2.8458572 
H     0.8936643   -1.5478912    3.2845452 
C    -0.8321217   -6.5230796   -1.7269030 
C     4.0690296   -5.3877361   -1.0147111 
C    -2.0999220   -4.5124216    4.1016064 
C    -4.9410076   -2.1922447    0.5960979 
C    -4.2877470    0.1981989    3.3144798 
C    -2.9293510   -0.0285455    3.6095826 
C    -1.9660617    0.4139270    2.6920099 
C    -2.3294469    1.0737516    1.5013570 
C    -3.6920717    1.2961013    1.2404727 
C    -4.6842723    0.8632176    2.1439476 
H    -5.0536996   -0.1502797    4.0178838 
H    -0.9141015    0.2380559    2.9163781 
H    -4.0062801    1.8331603    0.3421601 
C    -3.2419711    5.0198199   -1.8550650 
C    -3.5538911    3.6691929   -2.1145908 
C    -2.8045467    2.6787379   -1.4638547 
C    -1.7889910    3.0207582   -0.5427381 
C    -1.4730899    4.3696074   -0.3350424 
C    -2.1961836    5.3867551   -0.9948511 
H    -3.8155247    5.8055832   -2.3614142 
H    -3.0146737    1.6222583   -1.6738692 
H    -0.6582885    4.6489636    0.3391581 
H    -2.6505104   -5.4574242    3.9491345 
H    -1.0530361   -4.7597894    4.3420695 
H    -2.5426434   -4.0168641    4.9850859 
H    -5.6920168   -1.9990292    1.3804201 
H    -4.9082078   -1.3150236   -0.0703119 
H    -5.2953597   -3.0571768    0.0043985 
H    -0.8712838   -6.5692999   -2.8323163 
H    -0.6244417   -7.5452803   -1.3667314 
H    -1.8314207   -6.2249424   -1.3691215 
H     4.5113489   -5.4262854   -0.0020786 
H     4.2112442   -6.3747011   -1.4836891 
H     4.6423231   -4.6449354   -1.5977934 
C    -2.5137068   -0.7098658    4.8936320 
H    -3.2535902   -1.4680077    5.2005914 
H    -1.5353997   -1.2066621    4.7846436 
H    -2.4301904    0.0234173    5.7178391 
C    -6.1432895    1.1376616    1.8515487 
H    -6.3813608    2.2054640    2.0130901 
H    -6.3931206    0.9036442    0.8017776 
H    -6.8053234    0.5448841    2.5039654 
C    -4.6460313    3.3062856   -3.0959662 
H    -4.8291073    2.2190439   -3.1168891 
H    -5.5953028    3.8101787   -2.8415173 
H    -4.3768173    3.6249200   -4.1203593 
C    -1.8211764    6.8349283   -0.7807689 
H    -0.8417134    7.0471210   -1.2477788 
H    -2.5643562    7.5176842   -1.2235879 
H    -1.7296251    7.0702971    0.2941704 
