142
Energy =
C     3.4466817    1.2625380   -1.0673470 
C     3.2047438    1.9477486    0.1389898 
C     3.2517282    1.2275595    1.3765064 
H     2.8969627    3.0000651    0.1187732 
Pd    1.5667690    0.4588580    0.1333736 
P     0.8330427   -1.1850750    1.6301729 
P    -0.0230471    0.3295900   -1.6069408 
H     3.8818970    0.2551933   -0.9773799 
H     3.9351145    0.3694799    1.4154593 
C     3.6381066    2.7780945   -5.0703777 
C     3.9580346    1.4400083   -4.7930449 
C     3.8916749    0.9675595   -3.4786128 
C     3.4899086    1.8165553   -2.4179125 
C     3.1848920    3.1660776   -2.7134213 
C     3.2632200    3.6383331   -4.0249716 
H     3.6951716    3.1551890   -6.0968287 
H     4.2699586    0.7693376   -5.6000924 
H     4.1565550   -0.0725434   -3.2578272 
H     2.8931216    3.8519260   -1.9139576 
H     3.0336822    4.6859263   -4.2353200 
C     2.2009436    2.7934118    5.2419760 
C     2.9871374    1.6370761    5.1268982 
C     3.3460280    1.1577147    3.8617326 
C     2.9086802    1.8085904    2.6845508 
C     2.1244725    2.9804775    2.8186847 
C     1.7840160    3.4698919    4.0831443 
H     1.9116503    3.1687587    6.2283249 
H     3.3249990    1.1041235    6.0207412 
H     3.9790543    0.2687061    3.7769046 
H     1.7581518    3.5031623    1.9278903 
H     1.1682650    4.3698124    4.1681220 
Fe   -2.3775367   -4.1535653   -0.3659080 
C    -1.2136572   -2.5877592    0.1948453 
C    -1.5035534   -2.5113574   -1.2338717 
C    -2.9379153   -2.4849928   -1.3815306 
H    -3.4609388   -2.4305191   -2.3366889 
C    -3.5358541   -2.5066979   -0.0840554 
H    -4.6054658   -2.4972828    0.1304802 
C    -2.4854425   -2.5798428    0.8860784 
H    -2.6371093   -2.6550419    1.9628723 
C    -1.6261666   -5.8571255    0.4834904 
H    -0.8126075   -5.9183929    1.2096420 
C    -1.4878962   -5.9141191   -0.9441156 
H    -0.5519503   -6.0469678   -1.4903141 
C    -2.7970682   -5.7910629   -1.5229776 
H    -3.0362713   -5.7924310   -2.5881027 
C    -3.7434609   -5.6669736   -0.4510417 
H    -4.8219210   -5.5381992   -0.5591584 
C    -3.0204427   -5.7077256    0.7886962 
H    -3.4535838   -5.6142673    1.7865424 
C    -0.5604837   -2.3763577   -2.3803212 
C     0.1642595   -1.1785081   -2.6392175 
C     1.1325651   -1.1617713   -3.6669254 
H     1.7312353   -0.2608572   -3.8261806 
C     1.3317961   -2.2733405   -4.4936401 
H     2.0850082   -2.2338026   -5.2873954 
C     0.5494874   -3.4211793   -4.3065912 
H     0.6720866   -4.2894923   -4.9620598 
C    -0.3750261   -3.4644000   -3.2565517 
H    -0.9660834   -4.3648869   -3.0750641 
C     0.1096118    1.8100803   -2.7010939 
C     0.0846402    3.0380469   -2.0064294 
H     0.1342868    3.0377701   -0.9086335 
C    -0.0560660    4.2594512   -2.6795705 
C    -0.1589467    4.2325545   -4.0906541 
C    -0.1195176    3.0206271   -4.8160143 
C     0.0063766    1.8148158   -4.1014546 
H    -0.0174325    0.8749209   -4.6613896 
C    -1.8097159    0.4912987   -1.2039377 
C    -2.7386302    0.5902187   -2.2608502 
H    -2.3965802    0.5356180   -3.3004906 
C    -4.1052942    0.7471095   -2.0026232 
C    -4.5309163    0.8128487   -0.6517878 
C    -3.6233760    0.7101637    0.4231121 
C    -2.2568537    0.5651491    0.1193661 
H    -1.5403524    0.4660016    0.9368933 
C     2.2842993   -1.8287680    2.5803814 
C     3.4697804   -2.0607187    1.8606228 
H     3.4926198   -1.8989550    0.7778914 
C     4.6411636   -2.4601304    2.5156243 
C     4.6519360   -2.6420083    3.9046620 
H     5.5690292   -2.9428312    4.4173041 
C     3.4702371   -2.4142528    4.6255513 
C     2.2940745   -2.0104912    3.9756591 
H     1.4019896   -1.8184045    4.5763577 
C    -0.3318025   -0.6992380    2.9682882 
C    -1.0252132   -1.6494086    3.7349422 
H    -0.8729167   -2.7211501    3.5770038 
C    -1.9374488   -1.2351170    4.7174486 
C    -2.1530188    0.1257714    4.9605726 
H    -2.8833402    0.4409179    5.7101974 
C    -1.4429923    1.0761477    4.2096171 
C    -0.5368853    0.6707550    3.2223233 
H    -0.0029308    1.4218466    2.6330291 
C     0.1228505   -2.7826116    0.8727238 
H    -0.0459922   -3.4370889    1.7466829 
C     1.1901947   -3.4403080   -0.0221989 
H     0.7113937   -4.2589567   -0.5814505 
H     1.6063941   -2.7321409   -0.7592558 
H     2.0147606   -3.8607639    0.5742345 
C    -2.7385013   -2.2988877    5.4359737 
F    -3.4428614   -1.8031932    6.4693834 
F    -3.6204434   -2.8808754    4.5748575 
F    -1.9366983   -3.2848873    5.9003912 
C    -1.7076927    2.5480306    4.4479589 
F    -1.3195745    3.3032962    3.3916098 
F    -3.0297561    2.7749501    4.6446901 
F    -1.0583029    3.0100519    5.5412219 
C     5.8878680   -2.6359793    1.6775229 
F     6.1608924   -1.4843590    0.9980883 
F     5.7197659   -3.6037518    0.7455201 
F     6.9686238   -2.9454600    2.4150919 
C     3.4940732   -2.4984391    6.1375203 
F     3.9388743   -1.3285559    6.6730558 
F     2.2629733   -2.7277094    6.6464430 
F     4.3182616   -3.4733533    6.5713424 
C    -0.1084291    5.5736856   -1.9379210 
H    -0.8671653    6.2394680   -2.3811242 
H    -0.3406297    5.4210088   -0.8712744 
H     0.8608327    6.1051244   -1.9976969 
C    -0.2415375    3.0254902   -6.3209656 
H    -0.6278995    2.0623815   -6.6923789 
H    -0.9090312    3.8363967   -6.6550723 
H     0.7446495    3.1900362   -6.7955994 
C    -5.1259329    0.8158284   -3.1132117 
H    -4.6593670    0.6291265   -4.0938094 
H    -5.9292764    0.0769072   -2.9495571 
H    -5.6114810    1.8078963   -3.1500407 
C    -4.1103296    0.6762270    1.8523047 
H    -5.1755245    0.3984639    1.8897119 
H    -3.5361901   -0.0639068    2.4345448 
H    -3.9933496    1.6532561    2.3552863 
O    -0.4079070    5.4126904   -4.7591187 
O    -5.8854086    0.8907452   -0.4084488 
C     0.7226165    6.1242473   -5.2711881 
H     0.3227360    6.9995890   -5.8042346 
H     1.3856435    6.4695844   -4.4543051 
H     1.3079731    5.5037667   -5.9761169 
C    -6.3901713    2.1979232   -0.0981777 
H    -6.1978740    2.9055378   -0.9269342 
H    -7.4752326    2.0852630    0.0447547 
H    -5.9362522    2.5983891    0.8281019 
