124
Energy =
C    -0.3954030   -2.0358048   -2.6928282 
C    -0.1387111   -0.8018988   -3.3278927 
C     1.1515443   -0.1895760   -3.2999037 
H    -0.9850316   -0.2386359   -3.7421746 
Pd    0.3459785   -0.4071155   -1.2181515 
P     1.6024127    1.2052473   -0.0385634 
P    -1.0629841   -0.5365696    0.6305013 
H     0.4751943   -2.6385586   -2.3885294 
H     2.0207588   -0.8616259   -3.3058565 
C    -4.0708215   -4.2599812   -2.8906985 
C    -3.0843169   -4.5976160   -1.9515686 
C    -1.8939402   -3.8674552   -1.8925755 
C    -1.6712183   -2.7664173   -2.7533156 
C    -2.6768894   -2.4380235   -3.6934746 
C    -3.8585586   -3.1827347   -3.7655827 
H    -5.0006099   -4.8355482   -2.9401326 
H    -3.2458023   -5.4310803   -1.2609313 
H    -1.1295767   -4.1461242   -1.1612828 
H    -2.5209716   -1.6153801   -4.3988954 
H    -4.6165330   -2.9250630   -4.5127077 
C     1.8917106    3.8093488   -4.7359973 
C     0.6282482    3.4700311   -4.2244633 
C     0.3788927    2.1710082   -3.7686484 
C     1.3852805    1.1762135   -3.8139702 
C     2.6420660    1.5295520   -4.3523212 
C     2.8940870    2.8302820   -4.8039719 
H     2.0888858    4.8271311   -5.0875729 
H    -0.1664497    4.2229802   -4.1828431 
H    -0.6072723    1.9246275   -3.3606569 
H     3.4273913    0.7707509   -4.4219043 
H     3.8785811    3.0801492   -5.2128996 
Fe   -2.7301369    2.6125568    0.1693424 
C    -1.5465260    1.1789150    1.0141864 
C    -0.8056458    2.4130381    0.7418065 
C    -1.4528400    3.4582131    1.4982762 
C    -2.5877313    2.9108386    2.1817218 
C    -2.6607960    1.5161205    1.8764960 
C    -3.5521625    4.2372938   -0.7489503 
C    -2.6958629    3.5274111   -1.6566489 
C    -3.1933246    2.1878728   -1.7749579 
C    -4.3589598    2.0671235   -0.9391523 
C    -4.5795369    3.3360991   -0.3099570 
C     0.3805188    2.6355024   -0.1910214 
H    -1.1618219    4.5092385    1.5098826 
H    -3.2954837    3.4730575    2.7935888 
H    -3.4120540    0.8072005    2.2298427 
H    -3.4275404    5.2732581   -0.4282898 
H    -1.8123358    3.9335422   -2.1529175 
H    -2.7560527    1.3991083   -2.3901360 
H    -4.9620783    1.1706368   -0.7941973 
H    -5.3729788    3.5678057    0.4027949 
H     0.0288273    2.4469379   -1.2202214 
C     0.9191608    4.0731288   -0.1797012 
H     0.1009505    4.7620761   -0.4533212 
H     1.3087046    4.3799564    0.8050615 
H     1.7172573    4.1904998   -0.9289816 
C     2.7505942    0.6929781    4.4613539 
C     2.0099992    1.8091129    4.0361788 
C     1.6371968    1.9488694    2.6942507 
C     1.9971241    0.9799782    1.7383411 
C     2.7577858   -0.1529841    2.1418812 
C     3.1065309   -0.2684206    3.4966133 
H     1.7139335    2.5765283    4.7599542 
H     1.0482942    2.8205590    2.4018093 
H     3.6773097   -1.1502216    3.8116138 
C     5.8837072    2.2598085   -1.4568743 
C     5.2464603    3.1101104   -0.5310546 
C     3.9355318    2.8007139   -0.1319463 
C     3.2640637    1.6827666   -0.6685039 
C     3.9361336    0.8379076   -1.5651743 
C     5.2544331    1.1141321   -1.9726619 
H     6.9100621    2.4896412   -1.7689025 
H     3.4539168    3.4213771    0.6294961 
H     3.4315536   -0.0595817   -1.9333182 
C     3.1298685    0.4971730    5.9098436 
H     2.8836796    1.3812159    6.5200119 
H     2.5919094   -0.3716234    6.3341869 
H     4.2096392    0.2917550    6.0163279 
C     3.2313323   -1.2020110    1.1639125 
H     4.1868019   -0.8959297    0.6986368 
H     3.3846752   -2.1704470    1.6668977 
H     2.5040357   -1.3569889    0.3457016 
C     5.9748789    4.3058464    0.0421497 
H     5.3022392    4.9424718    0.6397715 
H     6.8054363    3.9822051    0.6961022 
H     6.4144317    4.9252713   -0.7594196 
C     5.9651961    0.2171623   -2.9619743 
H     7.0053230    0.0181779   -2.6514990 
H     5.4486184   -0.7505825   -3.0752694 
H     6.0105678    0.6934978   -3.9597358 
C     0.5810232   -2.3088572    4.6378083 
C    -0.0564702   -1.0813342    4.6228062 
C    -0.5279980   -0.5327071    3.4041612 
C    -0.3733765   -1.2163165    2.2017732 
H     0.9489662   -2.7333755    5.5782893 
H    -0.1940519   -0.5165633    5.5500624 
H    -1.0112858    0.4473006    3.4182259 
C     0.2858345   -2.4969005    2.1870432 
C     0.7770574   -3.0401906    3.4305971 
C     1.4457129   -4.3005592    3.4216678 
C     1.6188612   -5.0115252    2.2454553 
C     1.1229051   -4.4866589    1.0233653 
C     0.4738928   -3.2629839    1.0010175 
H     1.8187835   -4.7016348    4.3704778 
H     2.1326769   -5.9781125    2.2555921 
H     1.2575193   -5.0508036    0.0941614 
H     0.1057420   -2.8566262    0.0537469 
C    -3.0624113   -2.3985974    1.3810685 
C    -2.6465955   -1.4421972    0.4598752 
C    -3.4677071   -1.1454183   -0.6677802 
C    -4.6962396   -1.7559507   -0.8244515 
H    -2.4407783   -2.6465554    2.2469055 
H    -3.1059117   -0.4319488   -1.4103416 
H    -5.3204643   -1.5162313   -1.6913272 
C    -5.1535823   -2.7352950    0.1063074 
C    -4.3072651   -3.0739159    1.2229697 
C    -4.7404007   -4.0757333    2.1416153 
C    -5.9550480   -4.7179712    1.9639548 
C    -6.7899714   -4.3822250    0.8631544 
C    -6.3985580   -3.4107784   -0.0448745 
H    -4.0948936   -4.3308136    2.9894237 
H    -6.2780866   -5.4874842    2.6726661 
H    -7.7481950   -4.8967284    0.7360504 
H    -7.0404399   -3.1543207   -0.8948997 
