124
Energy =
C     2.5798176   -0.7209576   -2.0155915 
C     2.6356427    0.7117293   -2.0188573 
C     3.1531716    1.4290183   -0.9331507 
H     2.2361667    1.2635597   -2.8786276 
Pd    1.1444587    0.0116034   -0.4894005 
P    -0.4344731    1.3405084    0.7188878 
P     0.0570438   -1.9943585    0.0574291 
H     3.3303594   -1.2222587   -1.3905839 
H     3.6432326    0.8451789   -0.1394903 
C     1.3010118   -3.0866050   -5.3886619 
C     0.9712765   -1.7226131   -5.3289821 
C     1.3831255   -0.9422005   -4.2436220 
C     2.1400538   -1.5043210   -3.1885685 
C     2.4870718   -2.8717341   -3.2788390 
C     2.0672791   -3.6562413   -4.3598366 
H     0.9735204   -3.6967941   -6.2364257 
H     0.3835895   -1.2656663   -6.1320345 
H     1.0897474    0.1127092   -4.2086616 
H     3.1030902   -3.3192447   -2.4919932 
H     2.3481419   -4.7137832   -4.4050077 
C     4.0188529    5.6314775   -0.7036847 
C     4.4554323    4.7494692    0.2969732 
C     4.1605356    3.3858921    0.2037117 
C     3.4192934    2.8690285   -0.8870756 
C     3.0199011    3.7688361   -1.9058781 
C     3.3085317    5.1325258   -1.8093354 
H     4.2440766    6.7004705   -0.6326647 
H     5.0280530    5.1258437    1.1507623 
H     4.5001142    2.7024888    0.9897062 
H     2.4820458    3.4022475   -2.7854974 
H     2.9867461    5.8119322   -2.6053656 
Fe   -2.8043517    0.1057980    3.1981534 
C    -1.8670080    0.4200232    1.3893179 
C    -1.8475203   -0.9844119    1.7673116 
C    -3.2136171   -1.4145277    1.9194270 
C    -4.0761422   -0.2985940    1.6640007 
C    -3.2549649    0.8339959    1.3550922 
C    -2.8587396    1.6179887    4.5862637 
C    -4.0650906    0.8448742    4.6241546 
C    -3.7122536   -0.5151813    4.9159099 
C    -2.2871673   -0.5831130    5.0611447 
C    -1.7584794    0.7344246    4.8561512 
C    -0.6352038   -1.8748246    1.8137470 
H    -3.5317577   -2.4154656    2.2181628 
H    -5.1651199   -0.2981490    1.7398545 
H    -3.6187758    1.8361154    1.1218086 
H    -2.7964084    2.6902954    4.4013045 
H    -5.0734757    1.2198391    4.4397899 
H    -4.4048040   -1.3557560    4.9895805 
H    -1.7137839   -1.4837407    5.2876335 
H    -0.7063599    1.0176050    4.9167534 
H    -2.0417355    3.0019658   -0.0844239 
C    -2.4628941    2.3898257   -2.8227209 
C    -1.8589903    1.5423555   -1.6905620 
C    -1.2401895    2.4241128   -0.5826502 
C    -0.2086706    3.3949498   -1.1875304 
C    -0.8100460    4.2399660   -2.3225263 
C    -1.4223105    3.3522208   -3.4172492 
H    -3.3184688    2.9718802   -2.4271830 
H    -2.8692474    1.7228602   -3.6046131 
H    -1.0573873    0.8969503   -2.1039456 
H    -2.6225378    0.8671700   -1.2668853 
H     0.2250141    4.0515400   -0.4141024 
H     0.6265860    2.7896147   -1.5837829 
H    -1.5917375    4.9060569   -1.9080356 
H    -0.0275379    4.8974839   -2.7432202 
H    -0.6166875    2.7621259   -3.9005510 
H    -1.8773694    3.9729725   -4.2093350 
H    -0.0229954    1.7390594    2.9977959 
C    -0.4338093    4.4051493    3.6521761 
C    -0.8560734    3.6314036    2.3880994 
C     0.0880278    2.4361972    2.1458726 
C     1.5550010    2.8822880    2.0606811 
C     1.9696393    3.6670845    3.3169281 
C     1.0324537    4.8610386    3.5643685 
H    -0.5601131    3.7541415    4.5395183 
H    -1.1029246    5.2722213    3.7978780 
H    -0.8148454    4.3180196    1.5219564 
H    -1.8981002    3.2769071    2.4747555 
H     2.2050246    1.9998239    1.9174905 
H     1.6950962    3.5214624    1.1712693 
H     1.9436361    2.9907396    4.1945286 
H     3.0145224    4.0110388    3.2114585 
H     1.1400354    5.5851191    2.7325421 
H     1.3233370    5.3933458    4.4873031 
H    -2.0849565   -1.3961989   -0.7005234 
C    -3.5848740   -3.4958496   -1.5921500 
C    -2.2842804   -3.5424033   -0.7670429 
C    -1.4614998   -2.2598794   -1.0054400 
C    -1.1399294   -2.0900024   -2.5010421 
C    -2.4258266   -2.0750455   -3.3440812 
C    -3.2874805   -3.3224285   -3.0909306 
H    -4.2066873   -2.6515203   -1.2341509 
H    -4.1679345   -4.4178630   -1.4171677 
H    -1.6924810   -4.4212564   -1.0847328 
H    -2.5185093   -3.6734123    0.3036360 
H    -0.5793452   -1.1539359   -2.6513030 
H    -0.4777018   -2.9079329   -2.8441037 
H    -3.0100485   -1.1682983   -3.0894100 
H    -2.1610768   -1.9941749   -4.4137125 
H    -2.7481668   -4.2176572   -3.4588304 
H    -4.2294302   -3.2632376   -3.6649465 
H     1.0861005   -3.8351361   -1.0472345 
C     1.3154006   -6.0375331    0.5954145 
C     0.4907432   -4.7567607    0.8311879 
C     1.0846394   -3.5714560    0.0298382 
C     2.5507356   -3.3557078    0.4739134 
C     3.3908110   -4.6269096    0.2504823 
C     2.7888008   -5.8373167    0.9812703 
H     1.2447872   -6.3200871   -0.4734687 
H     0.8733325   -6.8695788    1.1722717 
H     0.5189912   -4.5105373    1.9104574 
H    -0.5629748   -4.9371679    0.5710151 
H     2.9952095   -2.5005724   -0.0575305 
H     2.5720526   -3.0950923    1.5487086 
H     3.4395433   -4.8441398   -0.8350009 
H     4.4290932   -4.4485504    0.5833109 
H     2.8587120   -5.6733514    2.0748232 
H     3.3725226   -6.7486147    0.7610412 
H    -0.9767234   -2.8887926    2.0833568 
C     0.4591381   -1.4343502    2.8023964 
H     0.0220231   -1.3110142    3.8047832 
H     1.2695247   -2.1789894    2.8627308 
H     0.9081768   -0.4712723    2.5016633 
