110
Energy =
C    -2.7839984    2.0072461    1.0523035 
C    -1.8771125    1.9450361    2.1292473 
C    -0.6314243    2.6478513    2.1048009 
H    -2.0783142    1.2450069    2.9494246 
Pd   -0.6860902    1.1905946    0.4211471 
P     1.5541310    1.2725619   -0.3010985 
P    -1.4101193   -0.4985309   -1.0577937 
H    -2.6298555    2.8012030    0.3051969 
H    -0.6152517    3.6026346    1.5643521 
C    -6.6388528    0.1261758    0.7856077 
C    -6.1231570    0.8613569   -0.2916663 
C    -4.8694111    1.4733201   -0.1881510 
C    -4.0980015    1.3520560    0.9912905 
C    -4.6431953    0.6261818    2.0779895 
C    -5.8968204    0.0191571    1.9741636 
H    -7.6208734   -0.3514399    0.7072726 
H    -6.6979676    0.9609603   -1.2177390 
H    -4.4730162    2.0449149   -1.0335498 
H    -4.0894142    0.5438546    3.0187201 
H    -6.3032642   -0.5359470    2.8257631 
C     2.3626705    2.2918065    5.1874822 
C     1.3747544    1.3017843    5.0542218 
C     0.4009171    1.4057508    4.0553318 
C     0.3827388    2.5108873    3.1708459 
C     1.3770175    3.5040471    3.3254414 
C     2.3581650    3.3929571    4.3179226 
H     3.1273445    2.2060053    5.9661603 
H     1.3680743    0.4400146    5.7302669 
H    -0.3400663    0.6068769    3.9493768 
H     1.3818276    4.3693002    2.6560338 
H     3.1202308    4.1730721    4.4149646 
Fe    2.2066401   -3.0942505    1.4143267 
C     1.6124682   -1.2076132    0.9674313 
C     0.9532168   -2.1713535    0.0918529 
C     0.2431732   -3.1046939    0.9357427 
H    -0.3421492   -3.9503586    0.5730402 
C     0.4164023   -2.7130697    2.2999276 
H     0.0147251   -3.2332728    3.1712454 
C     1.2511787   -1.5504215    2.3237696 
H     1.5960257   -1.0380203    3.2211363 
C     4.2075228   -3.1225598    1.8622919 
H     4.8400992   -2.2672821    2.1058728 
C     3.9787834   -3.6532078    0.5494476 
H     4.4106721   -3.2689020   -0.3767896 
C     3.0964108   -4.7818894    0.6751419 
H     2.7220030   -5.4067420   -0.1379708 
C     2.7809469   -4.9435963    2.0649907 
H     2.1149385   -5.6984900    2.4868183 
C     3.4652496   -3.9172819    2.7984945 
H     3.4129893   -3.7561245    3.8768758 
C     0.8492967   -2.1754996   -1.3960439 
C    -0.1687000   -1.4292588   -2.0589428 
C    -0.2612221   -1.4563806   -3.4629503 
H    -1.0310479   -0.8647147   -3.9673762 
C     0.6163575   -2.2432413   -4.2213626 
H     0.5304396   -2.2539581   -5.3125382 
C     1.5908448   -3.0144819   -3.5767165 
H     2.2712260   -3.6446763   -4.1588097 
C     1.7038839   -2.9707426   -2.1803633 
H     2.4663507   -3.5602581   -1.6680256 
C     1.8393662    1.0624991   -2.1163070 
C     2.7544069    0.1575273   -2.6818192 
H     3.3000051   -0.5537037   -2.0563945 
C     2.9658648    0.1419363   -4.0684345 
C     2.2708793    1.0267646   -4.9035699 
H     2.4367665    1.0068771   -5.9855273 
C     1.3678324    1.9443838   -4.3449916 
C     1.1620049    1.9662244   -2.9614128 
H     0.4912321    2.7154309   -2.5254243 
C     2.4511267    2.8802995   -0.1458568 
C     1.7137320    4.0744881   -0.0522926 
H     0.6225335    4.0286369    0.0150307 
C     2.3624279    5.3183935   -0.0652780 
C     3.7585094    5.3785614   -0.1721048 
H     4.2686676    6.3472248   -0.1741746 
C     4.5004548    4.1928839   -0.2992990 
C     3.8516875    2.9521861   -0.3039891 
H     4.4397090    2.0404885   -0.4543684 
C     2.5447378   -0.0690901    0.5899117 
H     3.2925075   -0.4485350   -0.1270735 
C     3.2678096    0.5023789    1.8248602 
H     2.5725277    1.0327653    2.4931355 
H     3.7180020   -0.3308503    2.3874588 
H     4.0671481    1.2028716    1.5474921 
C    -4.3592563    1.4171680   -4.1204340 
C    -3.2124404    2.1021813   -3.6881099 
C    -2.3408861    1.4974417   -2.7735524 
C    -2.5936929    0.1971174   -2.2885198 
C    -3.7513635   -0.4793966   -2.7200152 
C    -4.6258049    0.1298154   -3.6320105 
H    -5.0469251    1.8895516   -4.8295236 
H    -3.0017440    3.1118128   -4.0559989 
H    -1.4609359    2.0399908   -2.4172552 
H    -3.9905633   -1.4719071   -2.3294653 
H    -5.5259420   -0.4041907   -3.9538536 
C    -3.6482945   -3.9835884    1.0606743 
C    -3.2858395   -4.1066136   -0.2910772 
C    -2.6168717   -3.0593398   -0.9379553 
C    -2.3155234   -1.8726005   -0.2350179 
C    -2.6640214   -1.7653266    1.1213750 
C    -3.3324794   -2.8140942    1.7663547 
H    -4.1675645   -4.8054855    1.5645384 
H    -3.5169043   -5.0250070   -0.8407481 
H    -2.3048958   -3.1747230   -1.9818101 
H    -2.3774624   -0.8681816    1.6763995 
H    -3.5992538   -2.7197795    2.8240417 
H     3.6744099   -0.5754039   -4.4947284 
H     0.8303421    2.6507242   -4.9861326 
H     1.7746697    6.2394595    0.0078115 
H     5.5889127    4.2353778   -0.4104039 
