110
Energy =
C     0.3885296    0.5582188   -2.9604735 
C    -1.0162112    0.3575573   -2.8735826 
C    -1.8444226    1.3047643   -2.2375666 
H    -1.4486992   -0.5797918   -3.2434491 
Pd   -0.2414405    0.3438815   -0.7922007 
P    -1.5898763    0.3081203    1.1544592 
P     1.8796331   -0.2728576    0.1017957 
H     0.7336820    1.5995582   -2.9014082 
H    -1.4109418    2.3004988   -2.0652733 
C     3.0828878   -2.0643837   -5.0519993 
C     1.8980750   -2.5798684   -4.4987272 
C     1.0155277   -1.7404721   -3.8121521 
C     1.2928796   -0.3597628   -3.6738563 
C     2.4815153    0.1475783   -4.2484601 
C     3.3696993   -0.6968745   -4.9262873 
H     3.7758156   -2.7263642   -5.5810662 
H     1.6698855   -3.6465387   -4.5931492 
H     0.1207633   -2.1666431   -3.3463038 
H     2.7044208    1.2170593   -4.1666873 
H     4.2855552   -0.2850621   -5.3622856 
C    -6.1470971    1.2655065   -2.0692372 
C    -5.4233666    2.4091580   -1.7001822 
C    -4.0249268    2.4046665   -1.7648513 
C    -3.3142652    1.2568685   -2.1924769 
C    -4.0637262    0.1248274   -2.5942619 
C    -5.4605342    0.1283170   -2.5275903 
H    -7.2406290    1.2645345   -2.0189334 
H    -5.9489529    3.3094839   -1.3660797 
H    -3.4690280    3.3060892   -1.4850848 
H    -3.5538432   -0.7658956   -2.9738661 
H    -6.0192047   -0.7592120   -2.8419467 
Fe    0.8267584   -0.7987262    3.2730093 
C     1.8559609   -1.2868297    1.6256116 
C     0.8888877   -2.3140250    1.9480866 
H     0.0634459   -2.6267002    1.3128779 
C     1.1763667   -2.8184045    3.2570925 
H     0.6009390   -3.5781495    3.7886866 
C     2.3208927   -2.1207549    3.7613716 
H     2.7753801   -2.2556056    4.7444272 
C     2.7482711   -1.1819617    2.7668940 
C    -0.7669149    0.3080182    2.7803978 
C     0.3609392    1.1541262    3.1127319 
H     0.8249264    1.8801823    2.4456666 
C     0.7599350    0.8722619    4.4593679 
H     1.5983947    1.3306594    4.9863870 
C    -0.1106369   -0.1411610    4.9773857 
H    -0.0501810   -0.5946174    5.9682787 
C    -1.0561987   -0.4877592    3.9568257 
H     3.5937647   -0.5005644    2.8714074 
H    -1.8392047   -1.2413938    4.0523512 
C    -2.7800044   -1.1771443    1.2522886 
C    -4.1408274   -0.5653746    1.7154608 
C    -3.9370235    0.8302785    2.3170182 
C    -2.9628623    1.5730521    1.3857812 
H    -2.3584642   -1.8344638    2.0348285 
H    -4.7888308   -0.4625888    0.8254557 
H    -4.6554527   -1.2446264    2.4157360 
H    -4.8956353    1.3754158    2.3952552 
H    -3.5171829    0.7639082    3.3367885 
H    -3.4182758    1.5911083    0.3781364 
C     2.9413957    1.1895954    0.6568142 
C     4.3818244    0.7793550    0.2658616 
C     4.3371352   -0.0147672   -1.0505636 
C     3.2110251   -1.0807922   -0.9983193 
H     2.8309803    1.1902272    1.7537691 
H     5.0393332    1.6637456    0.1844744 
H     4.8105094    0.1425432    1.0608954 
H     4.1311185    0.6661837   -1.8925078 
H     5.3112860   -0.4822244   -1.2666772 
H     2.7685410   -1.1734952   -2.0016759 
C     3.6002061   -2.5177778   -0.5488199 
H     3.7941882   -2.5183997    0.5401835 
C     2.4515952    2.5847762    0.1720655 
H     1.3448435    2.5648390    0.2464329 
C    -2.9484986   -2.0057740   -0.0514571 
C    -2.6309500    3.0427182    1.7598001 
H    -3.5391054    3.6066614    1.4636762 
H    -3.2813083   -1.2936144   -0.8279978 
C     2.4410760   -3.4880689   -0.8470982 
H     2.6006972   -4.4619145   -0.3539087 
H     1.4684682   -3.0930775   -0.5086420 
H     2.3624409   -3.6594748   -1.9346167 
C     4.8756043   -3.0181369   -1.2550525 
H     4.7753243   -2.9344973   -2.3530668 
H     5.7762087   -2.4614386   -0.9463007 
H     5.0470779   -4.0807958   -1.0100122 
C     2.7992163    2.9197636   -1.2855814 
H     3.8877548    3.0400724   -1.4268804 
H     2.4539103    2.1324275   -1.9739682 
H     2.3196731    3.8678155   -1.5848847 
C     2.9682528    3.6843275    1.1180585 
H     2.5939729    4.6757496    0.8091197 
H     2.6439784    3.5076506    2.1595799 
H     4.0726503    3.7270866    1.1131122 
C    -1.4629136    3.6117839    0.9370317 
H    -1.3490735    4.6951006    1.1138369 
H    -0.5097117    3.1270661    1.2107630 
H    -1.6097055    3.4566360   -0.1448842 
C    -2.4264110    3.2985293    3.2644862 
H    -3.3182543    3.0217133    3.8508754 
H    -1.5666167    2.7389996    3.6674121 
H    -2.2402404    4.3730394    3.4362671 
C    -4.0537476   -3.0684796    0.1208119 
H    -4.1599774   -3.6604903   -0.8049345 
H    -3.7985374   -3.7682015    0.9384078 
H    -5.0374061   -2.6255801    0.3453558 
C    -1.6719389   -2.6910168   -0.5581782 
H    -1.8543139   -3.1613510   -1.5405163 
H    -0.8380453   -1.9688349   -0.6842115 
H    -1.3424042   -3.4913244    0.1292423 
