94
Energy =
C     1.7639081    2.4524563   -0.6307288 
C     1.1802653    2.0815907   -1.8636457 
C    -0.2226630    2.2215052   -2.0891277 
H     1.7863661    1.5625077   -2.6179352 
Pd    0.1268490    0.8459517   -0.3786727 
P    -1.9921305   -0.1725523   -0.4202789 
P     1.1211977   -0.3420083    1.4044234 
H     1.1946858    3.1565972   -0.0041581 
H    -0.7424981    3.0312453   -1.5546449 
C     5.9238665    2.2566719    0.4382394 
C     5.0406986    3.0992876    1.1281151 
C     3.6884244    3.1402936    0.7720240 
C     3.1904829    2.3480221   -0.2872329 
C     4.0972566    1.5149842   -0.9837546 
C     5.4457526    1.4657221   -0.6204149 
H     6.9816115    2.2178557    0.7181334 
H     5.4030350    3.7231057    1.9511094 
H     3.0026173    3.7938869    1.3204206 
H     3.7501427    0.9002607   -1.8194860 
H     6.1308229    0.8103067   -1.1679953 
C    -2.0081745    1.0386990   -5.8200527 
C    -1.0623557    0.2020073   -5.2039884 
C    -0.4912537    0.5695027   -3.9812374 
C    -0.8563150    1.7809846   -3.3497076 
C    -1.8276846    2.5977664   -3.9647246 
C    -2.3908602    2.2338364   -5.1942309 
H    -2.4521340    0.7528535   -6.7792068 
H    -0.7736915   -0.7421571   -5.6777311 
H     0.2277867   -0.0993906   -3.4929268 
H    -2.1374619    3.5276469   -3.4763830 
H    -3.1387336    2.8831652   -5.6604935 
Fe   -1.8787851   -0.9535582    2.8819451 
C    -2.7125071   -0.1340571    1.2523576 
C    -2.3747286    0.8897764    2.2217680 
H    -1.6872744    1.7204767    2.0453539 
C    -3.0833267    0.6104072    3.4351144 
H    -3.0167779    1.1835166    4.3613893 
C    -3.8638556   -0.5745516    3.2304335 
H    -4.4898559   -1.0659185    3.9775718 
C    -3.6436615   -1.0390701    1.8925486 
C    -1.9589747   -1.9263663   -0.9522680 
C    -3.1340231   -2.7055395   -1.0257038 
H    -4.1093495   -2.2534764   -0.8183491 
C    -3.0578790   -4.0562408   -1.3898447 
H    -3.9724023   -4.6562382   -1.4410846 
C    -1.8163942   -4.6387732   -1.6949019 
H    -1.7635334   -5.6953855   -1.9771770 
C    -0.6488454   -3.8632216   -1.6499517 
H     0.3221522   -4.3053675   -1.8958104 
C    -0.7223018   -2.5114301   -1.2858266 
H     0.1882875   -1.9061165   -1.2442645 
C    -3.3027012    0.6073754   -1.4471554 
C    -3.7062693    0.0619962   -2.6813751 
H    -3.2394339   -0.8505000   -3.0628827 
C    -4.7078932    0.6935704   -3.4321951 
H    -5.0155798    0.2605122   -4.3891760 
C    -5.3012108    1.8760741   -2.9694642 
H    -6.0844738    2.3645950   -3.5581805 
C    -4.8837136    2.4369692   -1.7521035 
H    -5.3420872    3.3617019   -1.3862982 
C    -3.8887288    1.8079818   -0.9928890 
H    -3.5822056    2.2421484   -0.0346118 
C     0.0915660   -1.2723769    2.5943476 
C    -0.6694273   -2.4656400    2.2864658 
H    -0.6976293   -2.9765838    1.3235187 
C    -1.3791289   -2.8512288    3.4696079 
H    -2.0622525   -3.6984032    3.5528283 
C    -1.0716084   -1.9107776    4.5071604 
H    -1.4785354   -1.9167049    5.5198815 
C    -0.1639139   -0.9366599    3.9783208 
C     2.2763128   -1.6334418    0.7932894 
C     2.7146747   -1.5920055   -0.5443273 
H     2.3528547   -0.7924466   -1.2004039 
C     3.5864447   -2.5720013   -1.0375414 
H     3.9195787   -2.5318812   -2.0799183 
C     4.0257418   -3.6041333   -0.1945652 
H     4.7052780   -4.3725586   -0.5775187 
C     3.5879184   -3.6565291    1.1385948 
H     3.9248596   -4.4652086    1.7953499 
C     2.7137671   -2.6791214    1.6334168 
H     2.3654212   -2.7313228    2.6704362 
C     2.0927621    0.7363500    2.5337070 
C     1.4548803    1.8861770    3.0456151 
H     0.4364578    2.1318076    2.7239845 
C     2.1146221    2.7092619    3.9674209 
H     1.6081669    3.5931110    4.3692460 
C     3.4255899    2.4034354    4.3667937 
H     3.9446198    3.0484670    5.0832413 
C     4.0729460    1.2787415    3.8359937 
H     5.1027545    1.0490883    4.1279968 
C     3.4116224    0.4430037    2.9238775 
H     3.9290747   -0.4277185    2.5104650 
H    -4.0730779   -1.9401436    1.4552035 
H     0.2561799   -0.0864515    4.5168365 
