124
Energy =
C     1.5757100    2.8168123   -1.1447726 
C     0.4945545    3.3795369   -0.4112220 
C     0.4674906    3.3608135    1.0001092 
H    -0.3844944    3.7384148   -0.9604898 
Pd    0.5476409    1.2197431    0.0714287 
P    -0.7042029   -0.0484030    1.6185497 
P     1.1176374   -0.5880974   -1.3250840 
H     2.5485555    2.7594151   -0.6333049 
H     1.4306075    3.2173055    1.5098783 
C     1.8737299    2.8173575   -5.4467940 
C     0.6097189    2.8714410   -4.8352513 
C     0.4975417    2.8780521   -3.4409053 
C     1.6485251    2.8329732   -2.6200630 
C     2.9138582    2.7998198   -3.2514950 
C     3.0260991    2.7877438   -4.6479406 
H     1.9578659    2.8078264   -6.5381760 
H    -0.2951579    2.9035001   -5.4511654 
H    -0.4980224    2.8956961   -2.9857986 
H     3.8203455    2.7930609   -2.6353518 
H     4.0172429    2.7621364   -5.1125114 
C    -2.5450202    5.1381431    3.5170308 
C    -1.3605246    4.6231076    4.0653701 
C    -0.3906272    4.0544162    3.2320941 
C    -0.5874249    3.9633787    1.8330988 
C    -1.7823775    4.4973785    1.2961583 
C    -2.7425799    5.0840917    2.1275890 
H    -3.3016137    5.5934423    4.1639400 
H    -1.1847381    4.6777385    5.1447224 
H     0.5423194    3.6816844    3.6645934 
H    -1.9668236    4.4634196    0.2178998 
H    -3.6528289    5.5047474    1.6881167 
Fe   -1.4936327   -3.5909165    1.2840711 
C    -1.3063919   -1.5950376    0.8301301 
C    -0.5115262   -2.4170635   -0.0763987 
C    -1.4019436   -3.3457523   -0.7245848 
C    -2.7320778   -3.1120314   -0.2494828 
C    -2.6789550   -2.0549306    0.7141426 
C    -1.0813346   -4.0136340    3.2556812 
C    -2.4181319   -4.4041913    2.9177225 
C    -2.3412739   -5.3536151    1.8433274 
C    -0.9559091   -5.5442115    1.5151920 
C    -0.1757878   -4.7143752    2.3875386 
C     0.9492148   -2.2312404   -0.3999302 
H    -1.1110412   -4.1226299   -1.4325397 
H    -3.6246887   -3.6717934   -0.5340158 
H    -3.5378531   -1.6718368    1.2620827 
H    -0.8040340   -3.3181428    4.0478057 
H    -3.3326207   -4.0391008    3.3886070 
H    -3.1881852   -5.8294339    1.3457748 
H    -0.5684081   -6.1980676    0.7315782 
H     0.9132735   -4.6439564    2.3993648 
H     1.4907313   -2.0042238    0.5327274 
C     1.5969330   -3.4772704   -1.0261243 
H     1.3728288   -4.3461864   -0.3823532 
H     1.2173629   -3.6938056   -2.0358961 
H     2.6909381   -3.3709817   -1.0854033 
H    -1.8402105    1.8503414    2.4953941 
C    -4.3629059    1.0441615    3.5309673 
C    -3.0700675    0.2540467    3.2558374 
C    -2.2480806    0.8953654    2.1116080 
C    -3.0779513    1.2397427    0.8481795 
C    -4.3948065    1.9607298    1.1858934 
C    -5.2016696    1.2105901    2.2554672 
H    -4.0984206    2.0452633    3.9244821 
H    -4.9419929    0.5327434    4.3207173 
H    -3.3265526   -0.7939898    3.0180429 
H    -2.4611521    0.2206739    4.1760044 
H    -2.4567410    1.8684864    0.1828890 
H    -3.3058769    0.3232983    0.2766967 
H    -4.1677594    2.9738333    1.5626762 
H    -4.9868479    2.0867645    0.2613564 
H    -5.5002872    0.2130295    1.8739692 
H    -6.1366279    1.7546059    2.4787158 
H    -0.8043683   -1.1324934    3.7102855 
C     1.7912858    1.2233740    3.8282852 
C     0.4378540    0.5882882    4.1902834 
C     0.0454153   -0.5856106    3.2642588 
C     1.2147236   -1.5779755    3.1062667 
C     2.5365980   -0.9033462    2.7209135 
C     2.9172967    0.1843449    3.7339895 
H     2.0421804    2.0060923    4.5667056 
H     1.7011903    1.7228325    2.8460581 
H    -0.3525590    1.3595737    4.2133585 
H     0.4986242    0.1788302    5.2175952 
H     1.3470277   -2.0925669    4.0782097 
H     0.9278620   -2.3596054    2.3834311 
H     3.3349521   -1.6615593    2.6288992 
H     2.4270187   -0.4317475    1.7232732 
H     3.8643567    0.6730072    3.4425613 
H     3.0888381   -0.2765786    4.7263971 
H     0.4921760    0.2243157   -3.4464817 
C    -2.2683827    0.1829620   -3.7151130 
C    -1.4107909   -0.0435544   -2.4585399 
C     0.0028189   -0.5569159   -2.8288411 
C    -0.1016552   -1.8489932   -3.6708511 
C    -0.9469233   -1.5994948   -4.9350234 
C    -2.3509439   -1.0866873   -4.5776223 
H    -1.8236290    1.0011105   -4.3144129 
H    -3.2787851    0.5177122   -3.4176508 
H    -1.9059769   -0.7804332   -1.8001011 
H    -1.3243208    0.8904491   -1.8715681 
H     0.8939831   -2.2276627   -3.9511795 
H    -0.5904047   -2.6311888   -3.0650147 
H    -0.4319915   -0.8554236   -5.5744963 
H    -1.0128494   -2.5321441   -5.5237342 
H    -2.8931130   -1.8734528   -4.0165690 
H    -2.9346866   -0.8912681   -5.4947829 
H     2.8670086    0.6213096   -2.2956205 
C     4.7510034   -0.8975653   -3.5786664 
C     3.3180044   -1.2767586   -3.1542267 
C     2.8751425   -0.4259554   -1.9429278 
C     3.8754875   -0.5047425   -0.7686816 
C     5.3026720   -0.1515698   -1.2245184 
C     5.7441315   -1.0197580   -2.4128657 
H     4.7496421    0.1453483   -3.9518804 
H     5.0629820   -1.5357525   -4.4246769 
H     3.2807810   -2.3536146   -2.9135163 
H     2.6331402   -1.1068966   -4.0019541 
H     3.5537302    0.1819916    0.0364472 
H     3.8739889   -1.5236318   -0.3353047 
H     5.3324252    0.9156640   -1.5209302 
H     6.0015069   -0.2635131   -0.3761838 
H     5.8041450   -2.0783370   -2.0905291 
H     6.7588443   -0.7323622   -2.7409218 
