94
Energy =
C    -1.8897716    2.1085761    1.2914118 
C    -0.8121800    1.8605087    2.1976480 
C     0.4873869    2.3540317    1.9320231 
H    -0.9545561    1.1407754    3.0131068 
Pd   -0.2738143    1.0008016    0.2468347 
P     1.7237054   -0.1592762   -0.1009937 
P    -1.6050089    0.1885603   -1.4770202 
H    -1.8687337    3.0507670    0.7243987 
H     0.5661426    3.2046074    1.2366263 
C    -5.7483918    0.2030562    1.4488534 
C    -4.6447334   -0.4037739    2.0716418 
C    -3.3912955    0.2127044    2.0391650 
C    -3.2116399    1.4571203    1.3890759 
C    -4.3324818    2.0588408    0.7749315 
C    -5.5867515    1.4369007    0.8028861 
H    -6.7280510   -0.2853285    1.4692566 
H    -4.7619098   -1.3693190    2.5740200 
H    -2.5341228   -0.2915138    2.4973622 
H    -4.2146567    3.0198544    0.2648742 
H    -6.4416020    1.9220886    0.3201082 
C     4.1254982    1.5493935    4.0698669 
C     4.1025791    2.4684897    3.0102558 
C     2.9027272    2.7366364    2.3437172 
C     1.7035706    2.0800537    2.7088466 
C     1.7424590    1.1622741    3.7848013 
C     2.9390221    0.9061025    4.4599156 
H     5.0617232    1.3421788    4.5988722 
H     5.0193212    2.9832013    2.7048992 
H     2.8901495    3.4573912    1.5205593 
H     0.8340860    0.6405130    4.0977597 
H     2.9473802    0.1951786    5.2919228 
Fe    0.8723789   -1.4773527   -3.1061860 
C     1.8746929   -1.4711020   -1.3550389 
C     2.7999346   -1.5276946   -2.4624443 
H     3.5715041   -0.7890356   -2.6847062 
C     2.5044692   -2.7106132   -3.2169944 
H     3.0114021   -3.0255761   -4.1309409 
C     1.4053114   -3.3853231   -2.5886325 
H     0.9314513   -4.3030985   -2.9413819 
C     1.0070257   -2.6249286   -1.4409484 
C    -0.7670204   -0.3185786   -3.0051950 
C    -1.0249676   -1.4740607   -3.8341907 
H    -1.7822600   -2.2361421   -3.6420864 
C    -0.0875502   -1.4508597   -4.9183780 
H    -0.0015055   -2.2065201   -5.7014374 
C     0.7478633   -0.2935081   -4.7720253 
H     1.5761941   -0.0148565   -5.4258163 
C     0.3383679    0.4093756   -3.5918177 
H     0.1910683   -2.8572487   -0.7555176 
H     0.7869577    1.3215453   -3.1924997 
C     2.0325511   -1.0395063    1.4495892 
C     1.1194854   -1.6785156    2.2667426 
C     1.8821206   -2.3497173    3.2729155 
C     3.2092651   -2.0787631    3.0096864 
H     0.0363672   -1.6596455    2.1388202 
H     1.5048838   -2.9533967    4.0985275 
O     3.3048388   -1.2921055    1.8937852 
C     4.4898084   -2.4468991    3.6750176 
H     5.1436610   -3.0149547    2.9893824 
H     5.0399313   -1.5416171    3.9886712 
H     4.2887221   -3.0648624    4.5630936 
C     3.1151183    0.9345878   -0.4147515 
C     3.1390177    2.1932840   -0.9822433 
C     4.5107031    2.5926150   -1.0273614 
C     5.2414638    1.5552340   -0.4844903 
H     2.2676205    2.7628664   -1.3081632 
H     4.9148012    3.5313352   -1.4062250 
O     4.3998199    0.5392855   -0.1246577 
C     6.6913724    1.3462699   -0.2144505 
H     6.8685905    1.2021979    0.8666115 
H     7.0663788    0.4478738   -0.7361791 
H     7.2679683    2.2194750   -0.5547965 
C    -2.5182575   -1.2512770   -0.8875697 
C    -3.7015872   -1.8770453   -1.2156188 
C    -3.8378769   -2.9861071   -0.3228020 
C    -2.7341303   -2.9778083    0.5008565 
H    -4.3916438   -1.5581935   -1.9947217 
H    -4.6581765   -3.7031550   -0.2860535 
C    -2.8700137    1.3568246   -2.0334404 
C    -2.7968780    2.7210132   -2.2236034 
C    -4.0616452    3.1255502   -2.7563275 
C    -4.8316536    1.9872268   -2.8605082 
H    -1.9380814    3.3552486   -2.0006005 
H    -4.3722373    4.1350775   -3.0254382 
O    -1.9226762   -1.9263155    0.1650010 
O    -4.1051123    0.9055287   -2.4338109 
C    -2.2871436   -3.8263847    1.6411153 
H    -1.2664442   -4.2147939    1.4757314 
H    -2.2764180   -3.2488253    2.5843161 
H    -2.9721284   -4.6785063    1.7657279 
C    -6.2257162    1.7183231   -3.3106968 
H    -6.2393834    1.0174311   -4.1647442 
H    -6.8214552    1.2675268   -2.4965516 
H    -6.7071987    2.6578032   -3.6211753 
