132
Energy =
C     2.1565535   -1.6531610   -2.3627027 
C     2.2392168   -0.2452144   -2.4361865 
C     2.7268556    0.5360571   -1.3497828 
H     1.8111099    0.2718865   -3.3042670 
Pd    0.9066206   -0.5969566   -0.7232826 
P     0.4548779    0.6912963    1.1643729 
P    -1.1147136   -1.8244466   -0.4210386 
H     2.7871572   -2.1555962   -1.6137174 
H     3.4707964    0.0727673   -0.6856936 
C     0.9201147   -4.2247619   -5.5824708 
C     0.5501135   -2.8685990   -5.5954686 
C     0.9370524   -2.0210328   -4.5535112 
C     1.7028225   -2.5113482   -3.4684934 
C     2.0704938   -3.8762580   -3.4711522 
C     1.6866844   -4.7231483   -4.5184758 
H     0.6160581   -4.8862660   -6.3998803 
H    -0.0477674   -2.4726744   -6.4228721 
H     0.6214207   -0.9730496   -4.5720604 
H     2.6725962   -4.2708811   -2.6446665 
H     1.9900773   -5.7750094   -4.5061021 
C     2.8810571    4.8395589   -1.4506851 
C     1.8245317    4.1640789   -2.0853145 
C     1.7655469    2.7667066   -2.0584064 
C     2.7608609    2.0131760   -1.3938888 
C     3.8195561    2.7052769   -0.7702533 
C     3.8797562    4.1043401   -0.7966760 
H     2.9227479    5.9335061   -1.4655074 
H     1.0410049    4.7311280   -2.5997327 
H     0.9290007    2.2502549   -2.5439109 
H     4.6021039    2.1383363   -0.2565879 
H     4.7033596    4.6186665   -0.2909030 
Fe    1.3826912   -2.1568978    2.8257768 
C     0.2364220   -0.4931463    2.5156028 
C    -0.5587156   -1.7083015    2.4341432 
C    -0.4290076   -2.3738789    3.7077151 
C     0.4379838   -1.6075011    4.5504491 
C     0.8569337   -0.4509286    3.8210769 
C     2.1574933   -3.2662148    1.2820257 
C     3.0637964   -2.2132202    1.6361943 
C     3.4125461   -2.3650745    3.0188793 
C     2.7232228   -3.5207253    3.5197352 
C     1.9467697   -4.0776934    2.4462876 
C    -1.0777934    1.6906168    1.1176279 
C    -1.2735149    2.5847698    0.0459739 
C    -2.4366415    3.3635826   -0.0413980 
C    -3.4362154    3.1871689    0.9465463 
C    -3.2726651    2.2852238    2.0236201 
C    -2.0684890    1.5622960    2.1058840 
C     1.7415792    1.8528709    1.7655782 
C     1.5295682    3.2409685    1.7931305 
C     2.5447652    4.1235608    2.2037092 
C     3.7824858    3.5785175    2.6085600 
C     4.0235774    2.1843007    2.5912642 
C     2.9947662    1.3390049    2.1547997 
C    -1.5500202   -2.1914669    1.3966877 
H    -0.9019897   -3.3235144    3.9684203 
H     0.7542890   -1.8752600    5.5602074 
H     1.5287014    0.3307641    4.1766430 
H     1.7097525   -3.4139371    0.3005258 
H     3.4215443   -1.4349011    0.9615523 
H     4.0722441   -1.7125878    3.5938592 
H     2.7642305   -3.8978290    4.5432050 
H     1.3009211   -4.9552610    2.5129183 
H    -0.5039397    2.6832071   -0.7264635 
H    -1.9161987    0.8742328    2.9444570 
H     0.5710598    3.6599140    1.4733705 
H     3.1608195    0.2598168    2.1318233 
H    -1.4802234   -3.2925826    1.4313115 
H    -2.5114685   -3.7417267   -0.6942851 
H    -2.4987610    0.1279839   -0.3594186 
C    -4.7985042   -0.1237784   -1.8583197 
C    -3.8544357   -1.2324304   -1.3537332 
C    -2.4327659   -0.6684955   -1.1256841 
C    -1.8925256   -0.0087506   -2.4218494 
C    -2.8611065    1.0532149   -2.9679480 
C    -4.2787309    0.4961200   -3.1639899 
H    -4.8838992    0.6643843   -1.0837033 
H    -5.8111710   -0.5413608   -2.0017447 
H    -3.8250118   -2.0410769   -2.1055670 
H    -4.2621612   -1.6735457   -0.4326293 
H    -0.9046808    0.4472827   -2.2080754 
H    -1.7169804   -0.7843087   -3.1907485 
H    -2.9043563    1.8905752   -2.2495865 
H    -2.4650344    1.4625191   -3.9154335 
H    -4.2684782   -0.2775464   -3.9572737 
H    -4.9583796    1.2955831   -3.5096475 
C    -1.0197600   -6.0155131   -1.0624201 
C    -0.5294361   -4.6146477   -0.6513437 
C    -1.5132972   -3.5263569   -1.1321987 
C    -1.6331557   -3.6014746   -2.6673775 
C    -2.1321306   -4.9926987   -3.1025635 
C    -1.2211252   -6.1153670   -2.5824196 
H    -1.9759728   -6.2264154   -0.5438421 
H    -0.2978800   -6.7775568   -0.7166178 
H     0.4568424   -4.4186153   -1.1137125 
H    -0.3874231   -4.5770823    0.4435846 
H    -2.3149109   -2.8293524   -3.0564971 
H    -0.6459757   -3.4073515   -3.1143015 
H    -3.1624635   -5.1438669   -2.7229844 
H    -2.1910747   -5.0281852   -4.2053953 
H    -0.2373510   -6.0356180   -3.0811006 
H    -1.6364166   -7.1033695   -2.8502966 
C    -2.9930187   -1.8267084    1.8206115 
H    -3.2245757   -0.7649162    1.6440197 
H    -3.7326277   -2.4441887    1.2868383 
H    -3.1098713   -2.0239887    2.9000747 
C    -2.6511654    4.3541960   -1.1615081 
H    -3.6552084    4.2362665   -1.6026011 
H    -2.5866619    5.3928847   -0.7881120 
H    -1.8915348    4.2328778   -1.9504476 
C    -4.3714850    2.0918140    3.0424149 
H    -4.2837358    2.8175397    3.8725663 
H    -5.3598919    2.2375788    2.5767072 
H    -4.3266966    1.0824796    3.4838662 
O    -4.6249221    3.8646436    0.7923275 
C    -4.7707399    5.0778809    1.5458364 
H    -5.7561007    5.4886395    1.2805815 
H    -4.7336289    4.8872317    2.6346129 
H    -3.9829374    5.8083062    1.2812546 
C     2.3330426    5.6183226    2.1648899 
H     1.9554194    5.9992807    3.1323967 
H     3.2816106    6.1370129    1.9498583 
H     1.5962153    5.8873403    1.3904984 
C     5.3783924    1.6477631    2.9878864 
H     5.5618793    1.7766029    4.0703327 
H     5.4648044    0.5737455    2.7545225 
H     6.1815741    2.1944895    2.4646011 
O     4.8341014    4.4121755    2.9237289 
C     4.8661589    4.9168211    4.2664556 
H     5.7719351    5.5366325    4.3422981 
H     3.9776820    5.5367470    4.4893952 
H     4.9215534    4.0908308    5.0008349 
