112
Energy =
C     0.6447457    1.4369051   -3.0288473 
C     0.9696569    2.5549754   -2.2069697 
C     2.0529858    2.4971477   -1.2977241 
H     0.2875148    3.4133455   -2.1771485 
Pd    0.5058208    0.8717713   -0.8625142 
P     0.7261518    0.8180750    1.4509878 
P    -0.7899496   -1.0708643   -1.1020558 
H     1.4739734    0.7648890   -3.2988843 
H     2.8261528    1.7392809   -1.4965587 
C    -2.7752978    1.1022937   -5.6301700 
C    -2.8005851    2.0114124   -4.5584290 
C    -1.6910354    2.1462126   -3.7178717 
C    -0.5235436    1.3758033   -3.9292507 
C    -0.5027810    0.4889163   -5.0314273 
C    -1.6176057    0.3468810   -5.8678091 
H    -3.6486344    0.9938491   -6.2811967 
H    -3.6958468    2.6142457   -4.3733358 
H    -1.7424432    2.8399771   -2.8726350 
H     0.4059284   -0.0877400   -5.2386192 
H    -1.5776904   -0.3492850   -6.7120945 
C     3.4722423    5.6703131    1.2342569 
C     4.1980077    4.4763882    1.1021130 
C     3.7106119    3.4461852    0.2893133 
C     2.4847138    3.5839141   -0.4038695 
C     1.7535856    4.7832850   -0.2402775 
C     2.2478779    5.8163452    0.5613835 
H     3.8574272    6.4834723    1.8581445 
H     5.1521000    4.3508974    1.6243926 
H     4.2869270    2.5210218    0.1813790 
H     0.7920985    4.9165160   -0.7454876 
H     1.6709367    6.7404525    0.6679555 
Fe   -0.1616677   -1.9570981    3.5123446 
C    -0.3967055   -0.3589989    2.2781759 
C    -0.9591657   -1.5697949    1.6902244 
C    -1.9688768   -2.0519294    2.6005421 
C    -2.0288944   -1.1738176    3.7325988 
C    -1.0590970   -0.1379359    3.5473185 
C     1.0198867   -3.6226926    3.3219690 
C     1.8174269   -2.4836102    3.6662526 
C     1.3287116   -1.9580497    4.9107245 
C     0.2290081   -2.7775837    5.3353291 
C     0.0355730   -3.8054440    4.3513299 
C     0.2203547    2.4327468    2.1644751 
C     1.1268444    3.3586502    2.7139080 
C     0.6622913    4.5875446    3.2073509 
C    -0.6976122    4.9141305    3.1367613 
C    -1.6026268    4.0061885    2.5616082 
C    -1.1486445    2.7748439    2.0775643 
C     2.4267780    0.4743665    2.0401680 
C     3.3519085   -0.0858058    1.1380901 
C     4.6460385   -0.4192756    1.5648439 
C     5.0266040   -0.1825010    2.8942527 
C     4.1077212    0.3748126    3.7990682 
C     2.8103148    0.6945292    3.3792808 
C    -0.5449096   -2.2139920    0.3890186 
H    -2.5623511   -2.9585232    2.4775752 
H    -2.6765561   -1.2968049    4.6022762 
H    -0.8615738    0.6931832    4.2259700 
H     1.1420385   -4.2404760    2.4304264 
H     2.6463639   -2.0843642    3.0810044 
H     1.7230620   -1.0919341    5.4429445 
H    -0.3705562   -2.6321927    6.2357402 
H    -0.7365979   -4.5767636    4.3735019 
H     2.1971950    3.1396992    2.7470823 
H    -1.8604439    2.0658454    1.6456811 
H     3.0489809   -0.2645947    0.0994195 
H     2.0913598    1.1051383    4.0951430 
H     0.5615774   -2.2512453    0.3918412 
C    -1.0697529   -3.6512983    0.2349925 
H    -0.8461614   -4.2155813    1.1561703 
H    -2.1579076   -3.6862307    0.0733196 
H    -0.5810375   -4.1668951   -0.6048333 
H     1.3787032    5.2949744    3.6365299 
H    -2.6670312    4.2550895    2.4958614 
H     5.3574461   -0.8600518    0.8588302 
H     4.4015300    0.5515676    4.8389143 
H    -1.0539626    5.8746645    3.5230033 
H     6.0376768   -0.4366887    3.2284682 
H    -0.0048150   -1.1767540   -3.2998587 
C    -0.1878505   -3.5850779   -4.5353852 
C    -0.9076130   -3.1016050   -3.2596033 
C    -0.0738228   -2.0007854   -2.5672322 
C     1.3689234   -2.4672300   -2.2703956 
C     2.0636800   -2.9500432   -3.5562350 
C     1.2465675   -4.0547189   -4.2458418 
H    -0.1608967   -2.7536933   -5.2672073 
H    -0.7745677   -4.3958358   -5.0028650 
H    -1.0700080   -3.9587589   -2.5822297 
H    -1.9016376   -2.7092506   -3.5326916 
H     1.9421133   -1.6393226   -1.8074886 
H     1.3560007   -3.2961159   -1.5366021 
H     2.1810571   -2.0917465   -4.2478260 
H     3.0818958   -3.3080331   -3.3202932 
H     1.2147302   -4.9464985   -3.5888604 
H     1.7422261   -4.3704209   -5.1809688 
H    -2.3485042   -0.4219685   -2.6686658 
C    -3.6755154    0.4846327    0.4304453 
C    -3.0471577    0.6736626   -0.9568666 
C    -2.5523048   -0.6450765   -1.6017249 
C    -3.6491685   -1.7385856   -1.5387856 
C    -4.3117722   -1.8826998   -0.1594881 
C    -4.8181257   -0.5407369    0.3880290 
H    -4.0436885    1.4578637    0.8025452 
H    -2.9052736    0.1381055    1.1453349 
H    -2.2127572    1.3996667   -0.9124885 
H    -3.8036537    1.1037658   -1.6409256 
H    -4.4237744   -1.4436494   -2.2734844 
H    -3.2609131   -2.7126097   -1.8791347 
H    -5.1370162   -2.6137356   -0.2286512 
H    -3.5822393   -2.2974449    0.5575861 
H    -5.2483756   -0.6793649    1.3958227 
H    -5.6330514   -0.1586185   -0.2577756 
