122
Energy =
C    -2.3493868   -2.0135762    1.1186947 
C    -2.1646280   -1.3719359    2.3688559 
C    -2.4509288    0.0126762    2.5058950 
H    -1.7113015   -1.9119778    3.2089963 
Pd   -0.8229511   -0.3016060    0.9897031 
P     0.5657701    1.5268871    1.3745846 
P     0.2197685   -0.8368717   -1.0785915 
H    -3.0291000   -1.5188668    0.4125221 
H    -3.1412648    0.4442470    1.7660738 
C    -1.8081718   -6.2003574    0.2991345 
C    -2.3302198   -5.3383626   -0.6786987 
C    -2.4887541   -3.9779109   -0.3963261 
C    -2.1185639   -3.4424327    0.8603408 
C    -1.5787628   -4.3233100    1.8266873 
C    -1.4373091   -5.6868678    1.5517786 
H    -1.6826361   -7.2662086    0.0843559 
H    -2.6042065   -5.7254780   -1.6645755 
H    -2.9042915   -3.3095998   -1.1596526 
H    -1.2690759   -3.9463159    2.8061760 
H    -1.0184252   -6.3517569    2.3129164 
C    -2.3755963    2.1240989    6.2397778 
C    -1.3873193    1.1614548    5.9722484 
C    -1.3780947    0.4829167    4.7510770 
C    -2.3580594    0.7568978    3.7699868 
C    -3.3251708    1.7522224    4.0384185 
C    -3.3435987    2.4187114    5.2688432 
H    -2.3812510    2.6506614    7.1995039 
H    -0.6142602    0.9494626    6.7174223 
H    -0.5901333   -0.2493085    4.5418725 
H    -4.0822934    1.9814330    3.2798993 
H    -4.1118401    3.1726735    5.4693093 
Fe   -3.3036739    2.1178982   -2.2905417 
C    -1.9563645    0.7372102   -1.6454062 
C    -1.6707088    2.0235121   -1.0223698 
C    -2.8686865    2.4355729   -0.3267365 
H    -2.9786164    3.3781276    0.2126368 
C    -3.8711793    1.4205779   -0.4802148 
H    -4.8906499    1.4570620   -0.0909778 
C    -3.3102348    0.3759448   -1.2881551 
H    -3.8245831   -0.5293198   -1.6199919 
C    -3.8336045    1.7853789   -4.2387811 
H    -3.6723792    0.8661998   -4.8050877 
C    -2.9359370    2.9023182   -4.1583727 
H    -1.9743927    2.9846712   -4.6682166 
C    -3.5353097    3.8923854   -3.3080734 
H    -3.1069725    4.8588140   -3.0363368 
C    -4.8014537    3.3880992   -2.8656861 
H    -5.4921629    3.8945051   -2.1889629 
C    -4.9876330    2.0872982   -3.4419853 
H    -5.8443937    1.4304949   -3.2797754 
C    -0.4255457    2.8580510   -0.9924333 
C     0.5237359    2.8325716    0.0737942 
C     1.4929515    3.8563019    0.1659923 
H     2.1542202    3.8878816    1.0378978 
C     1.6151990    4.8390192   -0.8210740 
H     2.3877284    5.6085987   -0.7349684 
C     0.7490728    4.8133632   -1.9200220 
H     0.8430822    5.5562235   -2.7180438 
C    -0.2630425    3.8490324   -1.9838908 
H    -0.9810777    3.8595249   -2.8038026 
C     1.9359898   -0.3251515   -1.5847965 
C     2.2179132    0.9490611   -2.1128485 
H     1.4364838    1.7013974   -2.2177947 
C     3.5210839    1.2772050   -2.5178539 
C     4.5725255    0.3668175   -2.3702555 
H     5.5861296    0.6337417   -2.6810044 
C     4.3033948   -0.8843185   -1.7999983 
C     3.0030979   -1.2338661   -1.4241399 
H     2.8441673   -2.2237115   -0.9946469 
C     0.3772058   -2.6429212   -1.3617176 
C     0.1466040   -3.2760967   -2.5923658 
H    -0.2230043   -2.7210139   -3.4592775 
C     0.4046896   -4.6495532   -2.7268565 
C     0.9451302   -5.3849268   -1.6640232 
H     1.1684396   -6.4478190   -1.7868939 
C     1.1919240   -4.7429451   -0.4414065 
C     0.8714907   -3.3924787   -0.2772444 
H     1.0331414   -2.9095110    0.6912617 
C    -1.0101585   -0.1913985   -2.3779003 
H    -1.5875820   -1.1088219   -2.5925523 
C    -0.4413008    0.3380916   -3.7053078 
H    -1.2565368    0.3720562   -4.4455262 
H    -0.0469654    1.3601420   -3.6039202 
H     0.3628550   -0.3069717   -4.0974792 
C     0.0307716   -5.3488001   -4.0159062 
F     0.7811228   -6.4471690   -4.2324319 
F    -1.2706240   -5.7464619   -3.9827372 
F     0.1644198   -4.5279556   -5.0834451 
C     1.8846960   -5.4858789    0.6796769 
F     1.6601295   -4.9022916    1.8858937 
F     1.4828738   -6.7729914    0.7609050 
F     3.2254818   -5.4892273    0.4866608 
C     3.8130402    2.6619997   -3.0495050 
F     4.8522930    2.6641885   -3.9081470 
F     2.7429223    3.1932720   -3.6888719 
F     4.1347729    3.5130511   -2.0336037 
C     5.4412836   -1.8629369   -1.5970843 
F     5.0854432   -2.8892281   -0.7888290 
F     5.8613415   -2.3881231   -2.7680470 
F     6.5095190   -1.2467803   -1.0276962 
C     4.6941230   -0.6357313    1.6711290 
C     4.6507093    0.6227669    1.0534636 
C     3.4383785    1.3187996    0.9298905 
C     2.2489426    0.7577123    1.4317028 
C     2.3029336   -0.5096182    2.0569102 
C     3.5142571   -1.2039504    2.1733622 
H     5.6407941   -1.1798230    1.7386022 
H     5.5653334    1.0596267    0.6409443 
H     3.4304627    2.2782562    0.4076005 
H     1.3778805   -0.9551792    2.4468861 
H     3.5305446   -2.1933260    2.6426039 
C     0.3705751    4.1340143    5.2137448 
C    -0.6184575    4.2382757    4.2224109 
C    -0.5545918    3.4349693    3.0796260 
C     0.5084800    2.5216768    2.9148833 
C     1.4923660    2.4095565    3.9177065 
C     1.4219039    3.2197319    5.0600255 
H     0.3189461    4.7659814    6.1062090 
H    -1.4462172    4.9437659    4.3438111 
H    -1.3256568    3.5212374    2.3064515 
H     2.3204275    1.7036931    3.8024754 
H     2.1963287    3.1369715    5.8296333 
