124
Energy =
C     1.3350150    1.0753659   -2.9818169 
C     2.3763012    0.2257140   -2.5059466 
C     2.1488600   -1.1635831   -2.3294339 
H     3.2985486    0.6814679   -2.1233390 
Pd    0.6934287    0.0757775   -1.1006190 
P     0.2348083   -1.4257638    0.6082409 
P    -0.8890632    1.6593787   -0.4230656 
H     0.5787519    0.6224090   -3.6416944 
H     1.3333622   -1.6121674   -2.9181629 
C     1.6664792    5.3491577   -3.3319609 
C     2.2467421    4.6941955   -2.2320593 
C     2.1457038    3.3051468   -2.1088650 
C     1.4548114    2.5439740   -3.0796729 
C     0.8544997    3.2163467   -4.1649212 
C     0.9705572    4.6057559   -4.2959997 
H     1.7506839    6.4364426   -3.4307516 
H     2.7753893    5.2700281   -1.4653640 
H     2.5786368    2.8064244   -1.2344157 
H     0.2914384    2.6430222   -4.9091160 
H     0.5032939    5.1107847   -5.1474429 
C     4.7969407   -4.0722187   -0.5885135 
C     3.6050677   -4.4679010   -1.2147679 
C     2.7704962   -3.5079798   -1.7995247 
C     3.0969013   -2.1320090   -1.7546052 
C     4.3131121   -1.7530581   -1.1400457 
C     5.1526849   -2.7133937   -0.5665779 
H     5.4533386   -4.8195687   -0.1312796 
H     3.3247996   -5.5249938   -1.2583536 
H     1.8531717   -3.8269926   -2.3046809 
H     4.6050684   -0.6996525   -1.0922889 
H     6.0853919   -2.3991892   -0.0879995 
Fe   -2.5684608   -1.3622658    2.7797488 
C    -0.8522487   -0.7717733    1.9125222 
C    -1.8913903    0.2396928    1.7341434 
C    -2.3108241    0.6474855    3.0490019 
C    -1.5664156   -0.0867415    4.0247619 
C    -0.6677386   -0.9621165    3.3406514 
C    -4.5832306   -1.6610371    2.7450075 
C    -3.9554848   -2.3549018    1.6553212 
C    -3.0080505   -3.2813761    2.2119896 
C    -3.0460903   -3.1572486    3.6398354 
C    -4.0201176   -2.1555795    3.9705342 
C     1.6509001   -2.0503605    1.5820289 
C     2.8145975   -1.2621864    1.6083824 
C     3.8819094   -1.6090278    2.4432754 
C     3.8129206   -2.7581455    3.2462224 
C     2.6521604   -3.5409683    3.2202626 
C     1.5684740   -3.1883996    2.4018585 
C    -0.5603480   -2.8620400   -0.2210463 
C    -0.0358585   -4.1650403   -0.2740219 
C    -0.6562778   -5.1373378   -1.0765439 
C    -1.7944899   -4.8342086   -1.8371589 
C    -2.3052505   -3.5289392   -1.7938650 
C    -1.6917966   -2.5567332   -0.9982929 
C    -2.3760702    0.8361056    0.4374118 
H    -3.0949355    1.3722953    3.2690131 
H    -1.6877988   -0.0185154    5.1070737 
H     0.0367059   -1.6467191    3.8133005 
H    -5.3474794   -0.8862989    2.6597286 
H    -4.1712587   -2.2166068    0.5951401 
H    -2.3628268   -3.9545109    1.6450029 
H    -2.4285074   -3.7111945    4.3494104 
H    -4.2721010   -1.8138016    4.9760166 
H     2.8845941   -0.3737574    0.9751491 
H     0.6568277   -3.7931864    2.4337889 
H     0.8641350   -4.4382030    0.2805742 
H    -2.0900234   -1.5388628   -1.0035910 
H    -2.6491023    0.0290173   -0.2647352 
C    -3.5975638    1.7503218    0.5993263 
H    -4.4225698    1.1732382    1.0525847 
H    -3.3802977    2.6073333    1.2564779 
H    -3.9342490    2.1342684   -0.3764398 
C     5.1088098   -0.7255132    2.5064943 
F     6.2472791   -1.4532691    2.5078527 
F     5.1689716    0.1294966    1.4500259 
F     5.1103986    0.0319439    3.6291764 
C     2.5083154   -4.7719993    4.0900603 
F     1.4560189   -4.6310610    4.9373855 
F     2.2619884   -5.8684921    3.3340529 
F     3.6083882   -5.0103857    4.8289333 
C    -0.0070256   -6.5008132   -1.1904408 
F    -0.8832869   -7.4523256   -1.5628207 
F     0.9858382   -6.4723734   -2.1244598 
F     0.5627431   -6.8783971   -0.0236687 
C    -3.4875578   -3.1021253   -2.6352038 
F    -3.9889043   -4.1025691   -3.3758154 
F    -4.4906378   -2.6060425   -1.8627534 
F    -3.1254271   -2.0933474   -3.4816271 
H     4.6511063   -3.0414908    3.8881309 
H    -2.2654443   -5.5967332   -2.4622367 
C    -2.8695101    3.7613719   -4.0188629 
C    -2.9429431    2.3582598   -3.8799727 
C    -2.3229589    1.7715185   -2.7668379 
C    -1.6522094    2.5660200   -1.8098330 
C    -1.5712653    3.9550547   -1.9839353 
C    -2.1905267    4.5699753   -3.0927161 
H    -3.3480098    4.2333954   -4.8856066 
H    -2.3595269    0.6802907   -2.6521091 
H    -1.0013254    4.5681389   -1.2793804 
C    -3.6642578    1.5137833   -4.9072686 
H    -3.1937909    1.6155419   -5.9021737 
H    -3.6581323    0.4465562   -4.6317376 
H    -4.7156764    1.8355934   -5.0135268 
C    -2.1270397    6.0711222   -3.2622113 
H    -1.1670656    6.4718653   -2.8956361 
H    -2.2470595    6.3645021   -4.3181920 
H    -2.9345545    6.5623774   -2.6872619 
C     0.9411908    4.3186032    2.8761579 
C    -0.3055229    4.7103064    2.3422069 
C    -0.8714322    3.9368303    1.3143011 
C    -0.1945187    2.8004483    0.8213786 
C     1.0487994    2.4418159    1.3717541 
C     1.6337726    3.1880942    2.4112429 
H     1.3835304    4.9183753    3.6809980 
H    -1.8386554    4.2323218    0.8957877 
H     1.5639850    1.5557650    0.9795208 
C    -1.0088219    5.9414283    2.8695869 
H    -1.9933349    6.0822352    2.3943814 
H    -1.1601389    5.8734725    3.9616903 
H    -0.4063309    6.8487281    2.6819783 
C     2.9534695    2.7530445    3.0099346 
H     2.8180270    1.8615066    3.6500434 
H     3.6807738    2.4767423    2.2269773 
H     3.3998964    3.5458185    3.6314287 
