124
Energy =
C     3.6228384   -0.8262785    0.3374653 
C     3.1709680    0.0518118   -0.6388963 
C     2.6695897    1.3834802   -0.3475795 
H     3.2534683   -0.2482022   -1.6910760 
Pd    0.9443507    0.2036254    0.0609749 
P    -0.6945594    1.6602691    0.8652941 
P    -0.8258917   -1.7307698    0.0793153 
H     3.5653984   -0.4888275    1.3815215 
H     2.9698958    1.8094352    0.6204779 
C     5.3846269   -4.7037618   -0.1444890 
C     5.0639466   -3.9420438   -1.2835485 
C     4.4801340   -2.6812270   -1.1499400 
C     4.2047289   -2.1401814    0.1347903 
C     4.5333819   -2.9258671    1.2714102 
C     5.1121957   -4.1907882    1.1338766 
H     5.8459629   -5.6902060   -0.2554349 
H     5.2793045   -4.3366357   -2.2819337 
H     4.2500665   -2.1006669   -2.0489296 
H     4.3317926   -2.5245897    2.2714917 
H     5.3602436   -4.7767626    2.0247868 
C     1.9350941    4.3589508   -3.3876486 
C     1.9291674    2.9959869   -3.7285787 
C     2.1885804    2.0229097   -2.7579835 
C     2.4580413    2.3845225   -1.4138394 
C     2.4972794    3.7647616   -1.0987907 
C     2.2313372    4.7379506   -2.0687360 
H     1.7269867    5.1188664   -4.1475000 
H     1.7178737    2.6896915   -4.7585450 
H     2.1688401    0.9682591   -3.0475669 
H     2.7556645    4.0728914   -0.0800215 
H     2.2660198    5.7982028   -1.7968738 
Fe   -0.0758616   -0.6292688    2.1204340 
C    -1.6676138    0.9015172    2.1622452 
C    -2.0552350   -0.4934676    2.1620611 
C    -2.4853311   -0.7884969    3.6160703 
C    -2.7310051    0.5749358    4.2072021 
C    -2.1639851    1.5158522    3.4112124 
C     1.1929463   -0.9292551    3.6919788 
C    -0.0198332   -0.3706918    4.1831759 
C    -1.1404435   -1.3932744    4.2274981 
C    -0.5439987   -2.3112927    3.1735831 
C     0.8859798   -2.1648804    3.0437438 
C    -2.4871230   -1.2760352    0.9198902 
H    -3.3105197   -1.5081496    3.7397766 
H    -3.1640307    0.7439209    5.1967371 
H    -2.0870681    2.5803388    3.6410288 
H     2.1722407   -0.4447883    3.7421336 
H    -0.0677001    0.5985306    4.6834376 
H    -1.3422848   -1.8302031    5.2331534 
H    -1.1007191   -3.1749849    2.7998154 
H     1.5852848   -2.8547564    2.5671841 
H    -1.9600610    1.1700173   -1.0875624 
C    -2.0588738    3.3728474   -2.7598813 
C    -1.1474946    3.1064028   -1.5490332 
C    -1.8225742    2.1340585   -0.5611417 
C    -3.2188019    2.6155377   -0.1155190 
C    -4.1076652    2.8706508   -1.3482456 
C    -3.4503929    3.8603955   -2.3253524 
H    -2.1639096    2.4370022   -3.3435033 
H    -1.5747850    4.1072564   -3.4281516 
H    -0.9301569    4.0652181   -1.0440574 
H    -0.1768255    2.7011906   -1.8805605 
H    -3.6825768    1.8673191    0.5524508 
H    -3.1294176    3.5470580    0.4726490 
H    -4.2879375    1.9081953   -1.8685576 
H    -5.0956539    3.2426129   -1.0232724 
H    -3.3533488    4.8476704   -1.8317701 
H    -4.0967061    4.0120847   -3.2081455 
H     0.7754794    3.4615412    0.6994919 
C     1.8657777    4.0661502    3.1516773 
C     0.9884510    2.8639970    2.7619367 
C     0.1044381    3.2004914    1.5405859 
C    -0.7772460    4.4389878    1.8156589 
C     0.1121075    5.6376486    2.2025542 
C     1.0107133    5.3182669    3.4080814 
H     2.5871039    4.2724567    2.3357582 
H     2.4654679    3.8163335    4.0452640 
H     0.3400294    2.5932688    3.6149544 
H     1.6054257    1.9712546    2.5468106 
H    -1.3787828    4.6954921    0.9284559 
H    -1.4899094    4.2296404    2.6335634 
H     0.7439736    5.9085823    1.3331750 
H    -0.5239654    6.5152400    2.4156748 
H     0.3756392    5.1465239    4.2995442 
H     1.6569127    6.1824663    3.6435310 
H    -0.8953713   -2.6277919   -2.1447667 
C    -0.3399362   -0.7803769   -4.0906641 
C    -0.1647779   -0.6692494   -2.5634038 
C    -1.1376974   -1.6008306   -1.8178797 
C    -2.5985308   -1.3416914   -2.2333581 
C    -2.7578317   -1.4633737   -3.7623123 
C    -1.7960381   -0.5262810   -4.5085097 
H    -0.0344917   -1.7944317   -4.4152975 
H     0.3384936   -0.0676227   -4.5937481 
H    -0.3284204    0.3822097   -2.2556733 
H     0.8759588   -0.9290146   -2.2877030 
H    -3.2762263   -2.0534595   -1.7317403 
H    -2.9111736   -0.3263822   -1.9229761 
H    -2.5590992   -2.5108251   -4.0628149 
H    -3.8049216   -1.2480481   -4.0407986 
H    -2.0609906    0.5248481   -4.2811699 
H    -1.9088246   -0.6508810   -5.5998830 
H    -0.2979360   -3.7903991    1.2308258 
C     1.5854813   -5.1326195   -0.2403621 
C     1.0596722   -3.6988952   -0.4264241 
C    -0.3643767   -3.5570264    0.1575794 
C    -1.3321982   -4.5780008   -0.4805829 
C    -0.7929910   -6.0109940   -0.2903255 
C     0.6276147   -6.1648070   -0.8554373 
H     1.7028039   -5.3334922    0.8429989 
H     2.5920717   -5.2138665   -0.6842306 
H     1.0512198   -3.4537328   -1.5075517 
H     1.7362257   -2.9722130    0.0541512 
H    -2.3385874   -4.4983984   -0.0407920 
H    -1.4395685   -4.3798640   -1.5643446 
H    -0.7866665   -6.2528439    0.7908601 
H    -1.4827909   -6.7285704   -0.7695767 
H     0.5994197   -6.0253040   -1.9545769 
H     1.0007898   -7.1891327   -0.6778067 
H    -2.9388711   -0.5577786    0.2116669 
C    -3.5005271   -2.3965071    1.1768638 
H    -3.8205055   -2.8721941    0.2362828 
H    -3.0975875   -3.1800144    1.8389822 
H    -4.3982743   -1.9743607    1.6615807 
