110
Energy =
C    -2.7616866    1.9627273    0.6254029 
C    -1.7376676    2.7146936    1.2672010 
C    -0.7517867    3.3884808    0.5106494 
H    -1.6548577    2.6978760    2.3604652 
Pd   -0.7071218    1.1110232    0.1344441 
P     1.6216331    0.9363742   -0.0154890 
P    -1.5392006   -0.7087793   -1.1191894 
H    -3.0216291    2.2485570   -0.4031656 
H    -0.9750947    3.5519669   -0.5546621 
C    -5.8499507   -0.2458737    2.6549255 
C    -4.7117306    0.1697651    3.3668877 
C    -3.6997296    0.8874812    2.7227911 
C    -3.8050936    1.2162252    1.3495606 
C    -4.9644979    0.8060308    0.6528795 
C    -5.9720247    0.0778445    1.2959555 
H    -6.6381203   -0.8132227    3.1602699 
H    -4.6126871   -0.0719419    4.4304476 
H    -2.8110026    1.1804204    3.2922722 
H    -5.0706064    1.0686988   -0.4040427 
H    -6.8596604   -0.2328632    0.7351487 
C     2.3670508    5.9627224    1.9554138 
C     1.9929100    5.9734070    0.6039460 
C     0.9825436    5.1171661    0.1503062 
C     0.3156086    4.2439736    1.0410807 
C     0.6888068    4.2635747    2.4061696 
C     1.7086041    5.1052848    2.8544966 
H     3.1618972    6.6259487    2.3119613 
H     2.4921315    6.6465506   -0.1008378 
H     0.7013348    5.1188315   -0.9080697 
H     0.1839152    3.6102346    3.1221946 
H     1.9922666    5.0958041    3.9114471 
Fe    2.0371767   -3.7516442    0.8586008 
C     1.6183033   -1.8050458    0.4074843 
C     0.6872442   -2.6937529   -0.2624585 
C     0.0306762   -3.4872647    0.7451445 
H    -0.7222572   -4.2540855    0.5585271 
C     0.5267302   -3.0742658    2.0267718 
H     0.2388120   -3.5034494    2.9884443 
C     1.5110011   -2.0476538    1.8243480 
H     2.0990202   -1.5611266    2.6042337 
C     4.0283456   -4.1050306    1.1747314 
H     4.7820482   -3.3609416    1.4364869 
C     3.6564202   -4.5066352   -0.1526352 
H     4.0903430   -4.1302323   -1.0812349 
C     2.6227363   -5.4988049   -0.0414217 
H     2.1195431   -6.0078185   -0.8656008 
C     2.3567673   -5.7077125    1.3520804 
H     1.6067603   -6.3838257    1.7666301 
C     3.2255261   -4.8475326    2.1034156 
H     3.2512159   -4.7536834    3.1907284 
C     0.4441590   -2.6383863   -1.7295010 
C    -0.4898580   -1.7101691   -2.2694777 
C    -0.6377802   -1.6002335   -3.6674156 
H    -1.3633720   -0.8975308   -4.0863888 
C     0.1267394   -2.3942756   -4.5341441 
H    -0.0033458   -2.2953727   -5.6167422 
C     1.0409438   -3.3148854   -4.0086802 
H     1.6397334   -3.9432492   -4.6760486 
C     1.1929541   -3.4287296   -2.6197320 
H     1.9122573   -4.1310239   -2.1956245 
C     2.2649709    1.9368266   -1.4120033 
C     1.9079736    1.4765256   -2.7028032 
H     1.3308984    0.5503288   -2.8193403 
C     2.2778629    2.1993721   -3.8423559 
C     3.0001473    3.3976883   -3.7132073 
H     3.2902669    3.9632825   -4.6045896 
C     3.3437576    3.8666742   -2.4385833 
C     2.9775433    3.1452343   -1.2910427 
H     3.2334189    3.5421350   -0.3070844 
C     2.3648813    1.4555546    1.5821163 
C     3.6688195    1.9703928    1.7376800 
H     4.3090274    2.1362880    0.8676375 
C     4.1655575    2.2611485    3.0159558 
C     3.3839807    2.0138533    4.1545292 
H     3.7804620    2.2361624    5.1506683 
C     2.0966828    1.4751811    4.0126598 
C     1.5880596    1.2076656    2.7351587 
H     0.5762123    0.7982524    2.6191596 
C     2.4131311   -0.7604961   -0.3230239 
H     2.2488165   -0.9203755   -1.4033358 
C     3.9241867   -0.7571377   -0.0553480 
H     4.1462447   -0.6871079    1.0217374 
H     4.3512607   -1.6995061   -0.4338401 
H     4.4206272    0.0807309   -0.5753117 
C    -4.3494339    1.6471437   -4.0032559 
C    -3.0201237    2.0505110   -3.7924113 
C    -2.1939399    1.3176229   -2.9318504 
C    -2.6839070    0.1630386   -2.2775539 
C    -4.0145885   -0.2377498   -2.4976571 
C    -4.8416093    0.5056380   -3.3558773 
H    -4.9986625    2.2236597   -4.6701495 
H    -2.6276757    2.9398853   -4.2964741 
H    -1.1589259    1.6426999   -2.7638913 
H    -4.4150856   -1.1193464   -1.9889274 
H    -5.8774459    0.1881109   -3.5151405 
C    -4.0013826   -3.9707632    1.0754936 
C    -3.7958105   -4.0732239   -0.3107577 
C    -3.0618183   -3.0898977   -0.9871735 
C    -2.5347110   -1.9928228   -0.2731397 
C    -2.7252607   -1.9062752    1.1165457 
C    -3.4637153   -2.8890479    1.7880056 
H    -4.5751427   -4.7420320    1.6000547 
H    -4.2042610   -4.9244383   -0.8654573 
H    -2.8841190   -3.1829529   -2.0642862 
H    -2.2737928   -1.0792354    1.6710211 
H    -3.6124742   -2.8095477    2.8692462 
H     1.9989889    1.8268282   -4.8335923 
H     3.8987919    4.8042696   -2.3279410 
H     5.1746489    2.6725840    3.1215559 
H     1.4832694    1.2720476    4.8967982 
