86
Energy =
C     1.7981287    1.6301591    1.8655152 
C     1.1052013    2.6025038    1.0895733 
C    -0.2939360    2.7584092    1.2062087 
H     1.6545954    3.1605449    0.3206693 
Pd    0.2845900    0.6369619    0.5334032 
P    -1.6423498    0.1168216   -0.7553245 
P     0.9543256   -1.6221328    0.7186496 
H     1.3580010    1.3619381    2.8376915 
H    -0.7592042    2.3812864    2.1295975 
C     6.0710043    1.1861668    1.6173676 
C     5.3210041    1.3892614    0.4461205 
C     3.9308007    1.5244733    0.5158101 
C     3.2617039    1.4575344    1.7592369 
C     4.0267311    1.2539219    2.9287589 
C     5.4198810    1.1218926    2.8582095 
H     7.1586142    1.0757175    1.5606312 
H     5.8243727    1.4317070   -0.5252683 
H     3.3484241    1.6485278   -0.4047271 
H     3.5237670    1.2085614    3.9012838 
H     5.9985270    0.9674425    3.7746670 
C    -2.7336331    5.6267086   -0.8666822 
C    -1.4875361    5.2599714   -1.4043413 
C    -0.6790441    4.3306517   -0.7438090 
C    -1.0993844    3.7479302    0.4750641 
C    -2.3517662    4.1340646    1.0094205 
C    -3.1614431    5.0634929    0.3449357 
H    -3.3652305    6.3517052   -1.3899363 
H    -1.1502557    5.6971254   -2.3497102 
H     0.2761935    4.0357694   -1.1905526 
H    -2.6857309    3.7016309    1.9593735 
H    -4.1257922    5.3519431    0.7754108 
Fe    0.0269110   -2.3835262   -2.5077631 
C     1.1810694   -2.4513142   -0.8723586 
C     1.8578442   -1.7575612   -1.9536924 
H     2.1995985   -0.7204838   -1.9210201 
C     1.9730268   -2.6618080   -3.0586779 
H     2.4077018   -2.4299093   -4.0325207 
C     1.3811109   -3.9114545   -2.6767894 
H     1.2842457   -4.7947036   -3.3108323 
C     0.9017368   -3.7959894   -1.3315603 
C    -1.4733966   -1.0717493   -2.1344125 
C    -1.9734323   -2.4314886   -2.2009731 
H    -2.5018052   -2.9642382   -1.4086588 
C    -1.6604944   -2.9616894   -3.4971598 
H    -1.8936710   -3.9686452   -3.8476995 
C    -0.9612037   -1.9519525   -4.2372526 
H    -0.5629647   -2.0565839   -5.2479979 
C    -0.8301892   -0.7932950   -3.4019112 
H     0.3989001   -4.5832478   -0.7724866 
H    -0.3141606    0.1291614   -3.6694922 
C    -2.7119802    1.5039860   -1.4626572 
C    -4.1988895    1.0526271   -1.3043837 
C    -4.2841744   -0.3611795   -0.6839263 
C    -3.0725083   -0.5686925    0.2502063 
H    -2.5199305    2.3303750   -0.7616326 
H    -4.7232559    1.7861258   -0.6673966 
H    -4.7058705    1.0666563   -2.2839541 
H    -5.2300328   -0.5070032   -0.1314843 
H    -4.2598009   -1.1204498   -1.4842148 
H    -2.8999811   -1.6417715    0.4450052 
C    -0.3014200   -2.4018499    1.8856360 
C     0.3348600   -2.0302571    3.2630913 
C     1.8979320   -2.0260609    3.1921567 
C     2.3434887   -2.3440140    1.7519497 
H    -1.2491085   -1.8563024    1.7697048 
H    -0.0249489   -1.0295530    3.5604678 
H    -0.0321668   -2.7340649    4.0298408 
H     2.2921963   -1.0381083    3.4853340 
H     2.3362928   -2.7610637    3.8891823 
H     2.1801767   -3.4254069    1.5697696 
C     3.7868540   -2.0239117    1.3704864 
H     4.0256824   -0.9614910    1.5093656 
H     4.4757850   -2.6137106    2.0008756 
C    -0.5840381   -3.9007400    1.7084145 
H    -1.2447391   -4.2435829    2.5246965 
H    -1.1011414   -4.0979957    0.7545357 
C    -2.3491836    1.9972481   -2.8678828 
H    -1.2871073    2.2881044   -2.9396155 
H    -2.9507960    2.8931289   -3.0998798 
C    -3.1995233    0.1836207    1.5873748 
H    -2.3045394    0.0454353    2.2196329 
H    -4.0769312   -0.1865262    2.1458056 
H     0.3312718   -4.5161654    1.7454828 
H     3.9828503   -2.2919909    0.3181340 
H    -3.3346036    1.2681404    1.4312754 
H    -2.5621051    1.2342306   -3.6353845 
