98
Energy =
C    -0.6867288   -3.0160661    0.4464952 
C    -1.4138785   -2.3429722    1.4593061 
C    -2.4881491   -1.4814632    1.1229381 
H    -1.0857835   -2.4116342    2.5036476 
Pd   -0.5134039   -0.7428340    0.2269423 
P    -1.0583001    1.5549885    0.1553931 
P     1.5394396   -0.7675512   -0.9571850 
H    -1.2014999   -3.1509037   -0.5154139 
H    -2.9667789   -1.6436990    0.1454449 
C     2.6035721   -5.7255349    1.0364067 
C     1.8779258   -5.7289084   -0.1643685 
C     0.8000368   -4.8513153   -0.3348595 
C     0.4290820   -3.9454519    0.6860113 
C     1.1582435   -3.9688044    1.8977760 
C     2.2317089   -4.8484131    2.0696172 
H     3.4479602   -6.4087563    1.1722737 
H     2.1485178   -6.4208772   -0.9685190 
H     0.2302891   -4.8683588   -1.2705092 
H     0.8986596   -3.2773108    2.7054577 
H     2.7878365   -4.8472629    3.0127622 
C    -4.9938761    0.6090396    3.9282153 
C    -3.6792098    0.2690247    4.2913220 
C    -2.8555452   -0.4196564    3.3950237 
C    -3.3253059   -0.7772630    2.1098975 
C    -4.6550101   -0.4409341    1.7645123 
C    -5.4812588    0.2438246    2.6643249 
H    -5.6357495    1.1495636    4.6311950 
H    -3.2953009    0.5443172    5.2791211 
H    -1.8310957   -0.6692858    3.6900325 
H    -5.0379301   -0.7170833    0.7758620 
H    -6.5079720    0.4933554    2.3777370 
Fe    1.4546748    2.4686674   -1.8719894 
C     2.3936499    0.8186882   -1.2427015 
C     2.5130500    1.8698334   -0.2549127 
H     2.1548968    1.8162227    0.7727531 
C     3.1657181    2.9911532   -0.8612899 
H     3.3709025    3.9477884   -0.3778627 
C     3.4717441    2.6488280   -2.2181173 
H     3.9511290    3.2983182   -2.9525901 
C     3.0097934    1.3137197   -2.4603139 
C    -0.4668525    2.4457320   -1.3154666 
C    -0.3115106    1.8378709   -2.6204424 
H    -0.5763566    0.8100746   -2.8727532 
C     0.2597809    2.8091525   -3.5052699 
H     0.5243394    2.6435369   -4.5510123 
C     0.4563733    4.0231108   -2.7689118 
H     0.8975408    4.9435645   -3.1552757 
C     0.0083731    3.8120721   -1.4234534 
H     3.0953428    0.7822374   -3.4089588 
H     0.0423412    4.5523384   -0.6228482 
C    -0.4577678    2.6112500    1.6023611 
C    -1.6922445    3.4493334    2.0492849 
C    -2.7168733    3.5209314    0.9040749 
C    -2.8420020    2.0905819    0.3478882 
H     0.3165441    3.2705332    1.1708192 
H    -2.1630190    2.9442209    2.9137092 
H    -1.3820554    4.4525038    2.3877870 
H    -3.6960945    3.8895184    1.2603660 
H    -2.3771034    4.2167039    0.1150634 
H    -3.1838902    1.4501351    1.1802697 
C     1.3889936   -1.4883472   -2.7002666 
C     2.5312452   -2.5365892   -2.8096635 
C     3.6453527   -2.1932202   -1.8090566 
C     2.9861837   -1.8685614   -0.4517711 
H     1.5929505   -0.6322778   -3.3674112 
H     2.1200496   -3.5314907   -2.5580902 
H     2.9147860   -2.5944700   -3.8428558 
H     4.3602133   -3.0284151   -1.6983499 
H     4.2247462   -1.3163052   -2.1558123 
H     2.5344777   -2.7883393   -0.0413736 
C     3.9375534   -1.2516515    0.5843485 
H     4.7911922   -1.9454195    0.7055685 
H     4.3605991   -0.3153840    0.1742386 
C     3.2991383   -0.9885807    1.9528097 
H     4.0018823   -0.4718954    2.6280893 
H     2.3943893   -0.3592259    1.8593502 
H     2.9921727   -1.9315905    2.4340358 
C    -0.0036753   -2.0397213   -3.0596271 
H    -0.2034337   -2.9369392   -2.4469914 
H    -0.7811599   -1.3024573   -2.7802154 
C    -0.1360416   -2.3922265   -4.5475003 
H    -1.1475237   -2.7698879   -4.7750423 
H     0.0457627   -1.5053405   -5.1814136 
H     0.5877105   -3.1712321   -4.8439303 
C     0.1743170    1.7876910    2.7403302 
H     0.9428918    1.1098275    2.3243265 
H    -0.6017176    1.1310631    3.1732064 
C     0.7969273    2.6603142    3.8377022 
H     1.2553812    2.0363571    4.6240431 
H     1.5848192    3.3151744    3.4226300 
H     0.0426104    3.3066934    4.3192791 
C    -3.7945233    1.8509529   -0.8411503 
H    -4.8195570    1.8035329   -0.4263340 
H    -3.5963976    0.8430048   -1.2565206 
C    -3.7675237    2.8960901   -1.9655738 
H    -2.7708789    2.9905857   -2.4260598 
H    -4.4814146    2.6158898   -2.7590086 
H    -4.0634186    3.8919965   -1.5930074 
