124
Energy =
C     3.2423307   -0.8429896   -1.3037112 
C     3.1706701    0.5588345   -1.5367687 
C     3.1654915    1.4845219   -0.4675023 
H     2.9958682    0.9180825   -2.5595059 
Pd    1.4079822    0.0302042   -0.3417571 
P    -0.2098954    1.5311834    0.5653410 
P     0.0906400   -1.9020854   -0.0404775 
H     3.7514886   -1.1762832   -0.3868396 
H     3.6154748    1.1545511    0.4808864 
C     3.3032798   -3.6722193   -4.5493591 
C     2.4959947   -2.5243986   -4.6375128 
C     2.4660789   -1.6031233   -3.5863669 
C     3.2363222   -1.8127695   -2.4185239 
C     4.0425130   -2.9688248   -2.3436694 
C     4.0805454   -3.8863967   -3.4023823 
H     3.3255093   -4.3935304   -5.3724977 
H     1.8830546   -2.3527225   -5.5285533 
H     1.8145460   -0.7250573   -3.6546741 
H     4.6506166   -3.1431154   -1.4488428 
H     4.7146465   -4.7756758   -3.3275941 
C     2.8845553    5.7626636   -0.8515175 
C     2.3167494    4.9371760   -1.8375344 
C     2.4143029    3.5457472   -1.7350387 
C     3.0747758    2.9460141   -0.6378059 
C     3.6578371    3.7890045    0.3348368 
C     3.5643595    5.1826270    0.2299715 
H     2.8034951    6.8513837   -0.9318754 
H     1.7914835    5.3823244   -2.6892171 
H     1.9523243    2.9168328   -2.5026418 
H     4.1869544    3.3401711    1.1824951 
H     4.0221218    5.8172001    0.9958432 
Fe   -2.3663976    0.3804133    3.3507985 
C    -1.6018756    0.7358782    1.4479843 
C    -1.6860021   -0.6912709    1.7523925 
C    -3.0649246   -0.9959903    2.0332439 
C    -3.8312950    0.2100963    1.9537519 
C    -2.9373376    1.2785119    1.6282438 
C    -1.9054698    1.7069828    4.8575159 
C    -3.2849111    1.3301026    4.9145603 
C    -3.3464333   -0.0948732    5.0741169 
C    -2.0030625   -0.5974504    5.1172191 
C    -1.1121641    0.5163395    4.9843808 
C    -0.5915478   -1.7279614    1.7079928 
H    -3.4470375   -1.9796724    2.3147495 
H    -4.8981933    0.3090243    2.1628299 
H    -3.2198378    2.3249478    1.5303668 
H    -1.5248610    2.7220405    4.7490523 
H    -4.1395159    2.0032566    4.8253983 
H    -4.2567806   -0.6955910    5.1231700 
H    -1.7185841   -1.6459792    5.2235458 
H    -0.0227581    0.4707552    4.9981106 
H    -0.1547266    3.2981401   -1.0027103 
C    -2.5808615    3.9330648   -2.1324027 
C    -2.3039787    3.0787966   -0.8786818 
C    -0.8877839    2.4685910   -0.9397635 
C    -0.7599868    1.6237956   -2.2245756 
C    -1.0441223    2.4523713   -3.4885009 
C    -2.4300916    3.1116431   -3.4215450 
H    -1.8746965    4.7867461   -2.1522160 
H    -3.5957781    4.3640380   -2.0644085 
H    -3.0464768    2.2611439   -0.8271976 
H    -2.4374475    3.6968433    0.0236538 
H     0.2466125    1.1628320   -2.2776671 
H    -1.4826830    0.7904965   -2.1682131 
H    -0.2687852    3.2376257   -3.5909258 
H    -0.9617861    1.8057711   -4.3811121 
H    -3.2082621    2.3229856   -3.4439391 
H    -2.5989550    3.7482079   -4.3081912 
H     1.1894984    3.4042261    0.9431523 
C     1.9538401    3.4093679    3.6595191 
C     1.3008166    2.3095085    2.8025104 
C     0.4892172    2.8968033    1.6323261 
C    -0.5417400    3.9347243    2.1200386 
C     0.1378190    5.0306160    2.9652260 
C     0.9260012    4.4426028    4.1458962 
H     2.7217097    3.9276677    3.0548721 
H     2.4795832    2.9495435    4.5158730 
H     0.6194007    1.7025355    3.4241430 
H     2.0741223    1.6228042    2.4099280 
H    -1.0474720    4.4039794    1.2597782 
H    -1.3171839    3.4197519    2.7165205 
H     0.8288309    5.6030264    2.3157068 
H    -0.6251237    5.7446613    3.3243614 
H     0.2274590    3.9615244    4.8580151 
H     1.4320114    5.2483605    4.7067720 
H    -1.9301910   -1.0144392   -0.8134977 
C    -3.7606481   -2.8844315   -1.5478579 
C    -2.4441108   -3.1055111   -0.7785299 
C    -1.4468327   -1.9713815   -1.1030692 
C    -1.1718455   -1.9013728   -2.6225406 
C    -2.4884148   -1.6804127   -3.3898838 
C    -3.5176851   -2.7757378   -3.0626571 
H    -4.2356457   -1.9535368   -1.1793667 
H    -4.4632769   -3.7082499   -1.3279488 
H    -2.0071694   -4.0780980   -1.0715541 
H    -2.6454718   -3.1571043    0.3046815 
H    -0.4487626   -1.0978743   -2.8410264 
H    -0.7076719   -2.8406528   -2.9672871 
H    -2.9085981   -0.6905067   -3.1195423 
H    -2.2868733   -1.6509600   -4.4759316 
H    -3.1436453   -3.7477769   -3.4402895 
H    -4.4683662   -2.5781973   -3.5892150 
H     1.9947551   -3.3406808    0.2351245 
C     1.7942996   -5.5628774   -1.4028106 
C     0.9664547   -4.2656414   -1.4215615 
C     0.9483100   -3.5943391   -0.0276834 
C     0.4118386   -4.5924257    1.0290126 
C     1.2261209   -5.9013975    1.0274128 
C     1.2603883   -6.5548396   -0.3610397 
H     2.8475051   -5.3164040   -1.1702546 
H     1.7937073   -6.0073501   -2.4139849 
H    -0.0698769   -4.5175140   -1.7117777 
H     1.3581599   -3.5761105   -2.1843629 
H     0.4467759   -4.1585846    2.0420356 
H    -0.6485787   -4.8217219    0.8110881 
H     2.2615195   -5.6785429    1.3528547 
H     0.8017482   -6.5930738    1.7772746 
H     0.2372571   -6.8727723   -0.6435095 
H     1.8815083   -7.4680246   -0.3403167 
H    -1.0623639   -2.6926743    1.9588723 
C     0.5821242   -1.4815455    2.6754726 
H     0.2405473   -1.5926432    3.7159122 
H     1.4073636   -2.1948957    2.5045985 
H     0.9835369   -0.4633848    2.5502880 
