124
Energy =
C     0.1965912   -2.3812433   -2.1967516 
C     0.7226917   -1.2526102   -2.8759487 
C     1.9616802   -0.6707719   -2.5045173 
H     0.1138639   -0.7484358   -3.6367186 
Pd    0.4685328   -0.6199313   -0.7795291 
P     1.4118862    1.1775723    0.4453642 
P    -1.1427237   -1.1611438    0.8472365 
H     0.9100174   -2.9988030   -1.6309564 
H     2.6847677   -1.3221885   -1.9924744 
C    -3.3353568   -4.5623643   -3.3221327 
C    -2.4698405   -5.0531457   -2.3344623 
C    -1.3429471   -4.3152760   -1.9572163 
C    -1.0498475   -3.0717105   -2.5626608 
C    -1.9433899   -2.5820643   -3.5462334 
C    -3.0684437   -3.3215360   -3.9226016 
H    -4.2223196   -5.1345499   -3.6106397 
H    -2.6774353   -6.0127833   -1.8513651 
H    -0.6706361   -4.7058390   -1.1853744 
H    -1.7472681   -1.6278644   -4.0456884 
H    -3.7427770   -2.9293266   -4.6906564 
C     3.7752109    2.5633613   -4.6790212 
C     4.5651858    1.5883209   -4.0527153 
C     3.9627324    0.5681069   -3.3070107 
C     2.5559951    0.4817636   -3.2031177 
C     1.7740935    1.4771459   -3.8324648 
C     2.3774786    2.5102362   -4.5552131 
H     4.2457924    3.3651986   -5.2570183 
H     5.6556934    1.6240762   -4.1433011 
H     4.5842726   -0.1899886   -2.8169069 
H     0.6831361    1.4427926   -3.7562920 
H     1.7550357    3.2763783   -5.0285611 
Fe   -2.4737762    1.8127307   -0.1729012 
C    -1.9420950    0.4303060    1.2335923 
C    -1.2142078    1.6716135    1.4526388 
C    -2.1973033    2.7066164    1.6436258 
C    -3.5047804    2.1311005    1.5539003 
C    -3.3564205    0.7309872    1.2961745 
C    -3.6809876    1.4611107   -1.7879909 
C    -3.6290165    2.8626212   -1.4853253 
C    -2.2616050    3.2859227   -1.5751881 
C    -1.4656495    2.1442649   -1.9314397 
C    -2.3443509    1.0192956   -2.0662702 
C     0.2515347    1.8608896    1.7810925 
H    -1.9680800    3.7579813    1.8307775 
H    -4.4513785    2.6686256    1.6336138 
H    -4.1670881    0.0134229    1.1608536 
H    -4.5810532    0.8435555   -1.7861814 
H    -4.4789245    3.4915701   -1.2147471 
H    -1.8981799    4.2989761   -1.4010854 
H    -0.3857163    2.1336289   -2.0752613 
H    -2.0433953    0.0017669   -2.3220824 
H     0.4368466    2.9484325    1.7894255 
C     0.5615701    1.3067084    3.1916073 
H    -0.2391082    1.6182644    3.8838777 
H     0.6079364    0.2085193    3.1983226 
H     1.5204755    1.6890323    3.5708373 
C     5.4018959   -0.3369836    2.3940020 
C     4.6110051   -1.1472921    1.5568548 
C     3.4294021   -0.6449188    1.0096287 
C     2.9845477    0.6693291    1.2664835 
C     3.7891661    1.5177405    2.0766365 
C     4.9686780    0.9796196    2.6284214 
H     4.9195827   -2.1752513    1.3352760 
H     2.8221650   -1.2789900    0.3540812 
H     5.5813448    1.6277918    3.2672023 
C     2.7742493    5.0497414   -1.7153688 
C     1.4417245    4.9537292   -1.2789842 
C     1.0315600    3.7701194   -0.6369722 
C     1.9231135    2.6958345   -0.4643284 
C     3.2484737    2.8122614   -0.9303635 
C     3.6950130    3.9994433   -1.5334734 
H     3.1131514    5.9779846   -2.1913300 
H     0.0072946    3.6908940   -0.2598999 
H     3.9554758    1.9913727   -0.7776299 
C     6.6894852   -0.8567171    2.9901391 
H     7.4884303   -0.8805998    2.2253478 
H     7.0392566   -0.2216841    3.8201903 
H     6.5687695   -1.8874928    3.3657788 
C     3.4969917    2.9798725    2.3460006 
H     3.6762147    3.2240413    3.4071296 
H     4.1706062    3.6131959    1.7402330 
H     2.4719443    3.2773338    2.0865906 
C     0.4645426    6.0882348   -1.4979584 
H     0.9819129    7.0574874   -1.5888337 
H    -0.1115302    5.9331969   -2.4301158 
H    -0.2602809    6.1622155   -0.6688031 
C     5.1467718    4.1780813   -1.9175908 
H     5.6934517    3.2223970   -1.8861386 
H     5.2461480    4.5999791   -2.9322824 
H     5.6446588    4.8790696   -1.2216395 
C     1.0262933   -2.9019529    4.5973961 
C     1.5852334   -2.9484088    3.3331728 
C     0.8649289   -2.4270507    2.2305512 
C    -0.4019981   -1.8687744    2.3803177 
H     1.5807317   -3.2797714    5.4634584 
H     2.5861300   -3.3624732    3.1782041 
H     1.3170864   -2.4436394    1.2340095 
C    -1.0346560   -1.8651881    3.6762588 
C    -0.2844171   -2.3764888    4.8013319 
C    -0.8751261   -2.3588739    6.0991728 
C    -2.1593514   -1.8781760    6.2911653 
C    -2.9076606   -1.4026611    5.1838290 
C    -2.3590992   -1.3962060    3.9106098 
H    -0.2937268   -2.7427414    6.9446185 
H    -2.6027451   -1.8733882    7.2920549 
H    -3.9301314   -1.0410979    5.3343932 
H    -2.9567512   -1.0374197    3.0716910 
C    -3.4817998   -1.9755105   -0.4717459 
C    -2.5283043   -2.3090529    0.4865925 
C    -2.6196459   -3.5680362    1.1560717 
C    -3.6677657   -4.4297037    0.8857180 
H    -3.4132852   -1.0210025   -0.9942375 
H    -1.8646082   -3.8477574    1.8960787 
H    -3.7333034   -5.3882279    1.4121127 
C    -4.6699297   -4.0991853   -0.0716608 
C    -4.5718284   -2.8391202   -0.7639005 
C    -5.5616889   -2.5021814   -1.7341438 
C    -6.6028145   -3.3717169   -2.0117672 
C    -6.6964762   -4.6181834   -1.3330366 
C    -5.7516158   -4.9736295   -0.3835397 
H    -5.4774561   -1.5490386   -2.2675463 
H    -7.3573766   -3.1051906   -2.7591178 
H    -7.5235874   -5.2975945   -1.5637428 
H    -5.8253892   -5.9329130    0.1404293 
