134
Energy =
C     2.9844057    0.7865531   -1.6590644 
C     2.0084193    0.7083575   -2.6871508 
C     0.9852415    1.6702831   -2.8496515 
H     1.9970783   -0.1854569   -3.3240337 
Pd    0.8501290    0.6282698   -0.8191648 
P    -1.4895048    0.6468623   -0.7569320 
P     1.2127661   -0.1380539    1.4217394 
H     3.2177628    1.7798243   -1.2498125 
H     1.1488313    2.6693121   -2.4181172 
C     6.2205084   -2.0449758   -1.7464160 
C     4.9028028   -2.4817936   -1.9604689 
C     3.8396390   -1.5756624   -1.8848501 
C     4.0743663   -0.2103201   -1.6074666 
C     5.4014908    0.2128585   -1.3697549 
C     6.4639929   -0.6970226   -1.4408435 
H     7.0522051   -2.7541965   -1.8053825 
H     4.7038550   -3.5369391   -2.1767817 
H     2.8111254   -1.9241897   -2.0247259 
H     5.6001704    1.2673567   -1.1471919 
H     7.4877294   -0.3506685   -1.2658452 
C    -1.7799747    1.5715880   -6.1455707 
C    -1.2958061    0.3675889   -5.6079125 
C    -0.4097934    0.3878803   -4.5260887 
C     0.0068356    1.6117337   -3.9521125 
C    -0.4978246    2.8140941   -4.4941910 
C    -1.3766845    2.7920808   -5.5850450 
H    -2.4819728    1.5578995   -6.9843123 
H    -1.6128972   -0.5893081   -6.0354643 
H    -0.0351570   -0.5544885   -4.1145117 
H    -0.1973987    3.7721719   -4.0577406 
H    -1.7596353    3.7330788   -5.9920237 
Fe   -1.0319181   -4.0917373   -1.0253838 
C    -0.9320839   -2.0518548   -1.1581687 
C    -0.4726601   -2.4996063    0.1473707 
C     0.6182933   -3.4190120   -0.0692499 
H     1.1462410   -3.9641540    0.7139624 
C     0.8524842   -3.5276845   -1.4807518 
H     1.5898184   -4.1743507   -1.9603967 
C    -0.0984757   -2.6875313   -2.1501087 
H    -0.2079717   -2.5803380   -3.2313068 
C    -2.5765873   -4.9329449   -2.0795106 
H    -3.1344750   -4.4758867   -2.8988929 
C    -2.9093154   -4.8714481   -0.6848290 
H    -3.7797961   -4.3717540   -0.2571810 
C    -1.9142105   -5.6069264    0.0426037 
H    -1.8726903   -5.7423029    1.1249990 
C    -0.9716119   -6.1291638   -0.9029130 
H    -0.0827628   -6.7162811   -0.6643800 
C    -1.3803880   -5.7130798   -2.2140354 
H    -0.8581362   -5.9306828   -3.1476474 
C    -0.9581474   -1.9990026    1.4649578 
C    -0.3014197   -0.9320044    2.1469878 
C    -0.8405742   -0.4788052    3.3702957 
H    -0.3846904    0.3603677    3.8986017 
C    -1.9822113   -1.0655236    3.9299764 
H    -2.3833217   -0.6808326    4.8721128 
C    -2.6152517   -2.1261553    3.2714030 
H    -3.5134829   -2.5850362    3.6952271 
C    -2.1011089   -2.5779224    2.0508976 
H    -2.5801500   -3.4022683    1.5187237 
C    -2.3251169    1.0919548    0.8350812 
C    -1.7763168    2.1900204    1.5237181 
H    -0.8532047    2.6582143    1.1680170 
C    -2.4037682    2.6990603    2.6683495 
C    -3.5721470    2.1072484    3.1642438 
H    -4.0542431    2.5014734    4.0631222 
C    -4.1008086    0.9955280    2.4961344 
C    -3.4988055    0.5004298    1.3320437 
H    -3.9542806   -0.3549884    0.8409146 
C    -2.3490665    1.9006945   -1.8199562 
C    -2.0493972    3.2548166   -1.5879013 
H    -1.3053444    3.5426745   -0.8393439 
C    -2.6880511    4.2634459   -2.3208495 
C    -3.6338830    3.9410118   -3.3002742 
H    -4.1234045    4.7293652   -3.8777131 
C    -3.9108019    2.5905769   -3.5543598 
C    -3.2760800    1.5751043   -2.8257378 
H    -3.5093998    0.5393448   -3.0766614 
C    -2.0081077   -1.0246250   -1.4649148 
H    -1.8980396   -0.7887589   -2.5402543 
C    -3.4502951   -1.5102780   -1.2294074 
H    -3.6760474   -2.2974108   -1.9652627 
H    -3.5556439   -1.9541455   -0.2292851 
H    -4.1939895   -0.7046908   -1.3469993 
C    -2.2526366    5.6956798   -2.1027700 
F    -3.1158510    6.5809665   -2.6344336 
F    -2.1129683    5.9755918   -0.7863708 
F    -1.0359863    5.9113803   -2.6807787 
C    -4.9129165    2.2358113   -4.6332479 
F    -4.8095866    0.9365165   -5.0062326 
F    -6.1814689    2.4398284   -4.2158932 
F    -4.7265354    2.9950325   -5.7406131 
C    -1.7664793    3.8407222    3.4255800 
F    -2.6771952    4.6227723    4.0312050 
F    -0.9391026    3.3585351    4.3996331 
F    -1.0079030    4.6201192    2.6167424 
C    -5.3261641    0.3131007    3.0684183 
F    -5.6812730   -0.7771564    2.3473959 
F    -5.0920648   -0.1037867    4.3404124 
F    -6.3857723    1.1464332    3.1113694 
H     0.5507383    1.7864969    2.6643238 
C     2.5485945    3.7064371    2.5671806 
C     2.3928808    2.4095879    1.7533008 
C     1.5593675    1.3553458    2.5233755 
C     2.1520133    1.0925221    3.9311828 
C     2.3043765    2.4054229    4.7241723 
C     3.1498172    3.4321832    3.9546985 
H     1.5557237    4.1799651    2.6847155 
H     3.1771504    4.4199508    2.0044254 
H     3.3911354    1.9947074    1.5183257 
H     1.9036664    2.6226187    0.7814165 
H     1.5303792    0.3773961    4.4956757 
H     3.1460199    0.6270584    3.8346980 
H     1.3068973    2.8321555    4.9293217 
H     2.7638192    2.1813550    5.7035010 
H     4.1822482    3.0466841    3.8378977 
H     3.2262251    4.3720367    4.5294837 
H     2.5065459   -2.0193086    0.7480069 
C     3.4248977   -3.4610020    2.9199626 
C     2.3508604   -2.3568509    2.8831940 
C     2.5774489   -1.4197393    1.6751125 
C     3.9978895   -0.8156013    1.7081157 
C     5.0526701   -1.9368707    1.7273014 
C     4.8458263   -2.8759782    2.9248438 
H     3.3035910   -4.1118336    2.0302842 
H     3.2621289   -4.1023049    3.8047910 
H     2.3933974   -1.7699223    3.8193237 
H     1.3455339   -2.8099118    2.8453163 
H     4.1586014   -0.1580281    0.8422674 
H     4.1285262   -0.1991638    2.6127525 
H     4.9832269   -2.5123059    0.7863150 
H     6.0621434   -1.4892660    1.7474096 
H     5.0053424   -2.3140048    3.8663024 
H     5.5943621   -3.6882404    2.9114105 
