110
Energy =
C     1.2247622    2.7840456    0.6675907 
C     0.4826777    2.9223483   -0.5206306 
C    -0.9377671    2.8398210   -0.5367100 
H     1.0166485    3.0460740   -1.4708347 
Pd    0.0088995    0.8469017    0.0955608 
P    -1.9422055   -0.4887935   -0.1873562 
P     1.6451879   -0.7866698    0.6191440 
H     0.6774720    2.8780568    1.6166886 
H    -1.4620852    3.0812808    0.3976824 
C     5.4625867    3.3762992    1.0898474 
C     4.6037731    3.5117466    2.1910476 
C     3.2266193    3.3173060    2.0337996 
C     2.6769804    2.9828536    0.7733689 
C     3.5545409    2.8751072   -0.3323922 
C     4.9302784    3.0657860   -0.1735247 
H     6.5409375    3.5200625    1.2111435 
H     5.0079591    3.7689603    3.1753120 
H     2.5595220    3.4242549    2.8958392 
H     3.1599677    2.6299616   -1.3234954 
H     5.5943658    2.9705323   -1.0388220 
C    -3.1577648    3.6565077   -4.1383793 
C    -1.8902662    3.0555656   -4.2182486 
C    -1.1729247    2.7649299   -3.0539438 
C    -1.6994312    3.0807774   -1.7774968 
C    -2.9743382    3.6883382   -1.7150678 
C    -3.6957941    3.9714500   -2.8821008 
H    -3.7205533    3.8780309   -5.0506525 
H    -1.4644808    2.8034903   -5.1949502 
H    -0.2025420    2.2641469   -3.1322666 
H    -3.3931434    3.9619845   -0.7404636 
H    -4.6785200    4.4487625   -2.8096133 
Fe   -0.5201405   -3.3645100    0.9856926 
C     1.0699263   -2.2609658    1.5244715 
C     1.4455288   -3.6524398    1.3555410 
H     2.1690651   -4.0491850    0.6429959 
C     0.6657805   -4.4416587    2.2630398 
H     0.6983406   -5.5293711    2.3482400 
C    -0.1938825   -3.5630954    2.9993271 
H    -0.9302854   -3.8626047    3.7469794 
C     0.0504663   -2.2253538    2.5516246 
C    -1.7860451   -2.2985055   -0.1586818 
C    -2.5121368   -3.2474650    0.6643525 
H    -3.2657952   -3.0102960    1.4164396 
C    -2.0498883   -4.5647226    0.3391698 
H    -2.3849788   -5.4905173    0.8102398 
C    -1.0426527   -4.4508775   -0.6734574 
H    -0.4781878   -5.2755114   -1.1121105 
C    -0.8744156   -3.0623244   -0.9829038 
H    -0.4556697   -1.3274009    2.9060836 
H    -0.1791577   -2.6463039   -1.7119772 
C    -2.9830946   -0.0264032   -1.7036583 
C    -4.3230858    0.5075472   -1.1304449 
C    -4.1081760    0.9869344    0.3148574 
C    -3.3296277   -0.1303942    1.0353523 
H    -2.4272405    0.8310097   -2.1144299 
H    -4.7112734    1.3169429   -1.7714069 
H    -5.0762340   -0.2995601   -1.1219882 
H    -3.5323363    1.9285362    0.3322893 
H    -5.0701345    1.1847471    0.8182481 
H    -3.9574141   -1.0394645    0.9671637 
C     3.2370838   -0.2449356    1.5160589 
C     4.4013419   -0.7501218    0.6182361 
C     3.9138848   -1.9189411   -0.2454715 
C     2.5568363   -1.5160571   -0.8671434 
H     3.2268727    0.8538358    1.4839248 
H     4.7302270    0.0808194   -0.0306663 
H     5.2755114   -1.0402362    1.2226526 
H     4.6471209   -2.1972713   -1.0209600 
H     3.7802526   -2.8107433    0.3899346 
H     2.0001948   -2.4086549   -1.2041759 
C     2.6381720   -0.4923290   -2.0416915 
H     2.8167485    0.5089887   -1.6021101 
C     3.2503054   -0.6448142    3.0164435 
H     3.0316398   -1.7266753    3.1022483 
C    -3.0829821   -1.0781504   -2.8443106 
H    -2.0677916   -1.4995457   -2.9799661 
C    -2.9689322    0.0641200    2.5264007 
H    -2.4404382   -0.8587114    2.8329976 
C     2.1623778    0.1428902    3.7735708 
H     2.0059812   -0.2642861    4.7868222 
H     2.4615392    1.2010679    3.8736424 
H     1.1924233    0.1283560    3.2468486 
C     4.6194316   -0.3807595    3.6723829 
H     4.5598583   -0.5662530    4.7590173 
H     5.4120513   -1.0337079    3.2708105 
H     4.9300157    0.6697667    3.5223243 
C     3.7974706   -0.7875492   -3.0106781 
H     3.7624180   -0.0893218   -3.8650728 
H     4.7843258   -0.6730956   -2.5319486 
H     3.7277679   -1.8143597   -3.4143609 
C     1.3102759   -0.4311001   -2.8157619 
H     1.3483136    0.3447439   -3.6000687 
H     1.0987295   -1.3961781   -3.3126530 
H     0.4615658   -0.1908316   -2.1446140 
C    -3.4647972   -0.3775492   -4.1634119 
H    -3.5077526   -1.1064838   -4.9914440 
H    -4.4582542    0.0998557   -4.0849982 
H    -2.7356107    0.4063469   -4.4282509 
C    -4.0446670   -2.2455325   -2.5603477 
H    -3.9355771   -3.0193960   -3.3393964 
H    -3.8527586   -2.7229460   -1.5859827 
H    -5.0971687   -1.9108307   -2.5789090 
C    -4.2466968    0.1556227    3.3840679 
H    -3.9919539    0.1549867    4.4579495 
H    -4.8058261    1.0847619    3.1753611 
H    -4.9218778   -0.6979195    3.1943443 
C    -2.0355487    1.2516782    2.8022799 
H    -1.7550336    1.2888495    3.8688814 
H    -1.0997925    1.1681421    2.2083964 
H    -2.5158942    2.2137495    2.5476731 
