142
Energy =
C     2.6652439    1.9517438   -0.8605805 
C     3.1442439    0.6268863   -0.6457879 
C     2.7731938   -0.4403727   -1.4932176 
H     3.7088489    0.4059792    0.2677840 
Pd    0.9530665    0.5524564   -0.4414203 
P    -0.1693669   -1.4527402    0.0967589 
P    -0.5318766    2.2072699    0.2577061 
H     2.4306072    2.2387276   -1.8950992 
H     2.3747609   -0.1762501   -2.4846778 
C     3.5714826    5.2656267    1.7370657 
C     3.6633483    3.9511706    2.2245667 
C     3.3461527    2.8683628    1.3992897 
C     2.9650387    3.0728901    0.0515364 
C     2.8845342    4.4012394   -0.4264102 
C     3.1724446    5.4869279    0.4101329 
H     3.7938050    6.1100394    2.3958748 
H     3.9565231    3.7750256    3.2634158 
H     3.3825153    1.8538315    1.8115055 
H     2.6019413    4.5763345   -1.4697439 
H     3.0836710    6.5073821    0.0250357 
C     4.1203196   -4.5128944   -1.2035268 
C     3.3293672   -4.0945835   -2.2838259 
C     2.9028409   -2.7652396   -2.3638986 
C     3.2343653   -1.8295425   -1.3563034 
C     4.0322866   -2.2677380   -0.2734314 
C     4.4757897   -3.5904722   -0.2059119 
H     4.4672845   -5.5497008   -1.1430305 
H     3.0543121   -4.8018212   -3.0731085 
H     2.3070681   -2.4406290   -3.2216028 
H     4.3090598   -1.5747251    0.5257940 
H     5.0999376   -3.9068965    0.6345901 
Fe   -4.4702712    0.5147264   -1.8359683 
C    -2.6966191    0.9637032   -0.9741569 
C    -2.9929193   -0.4474423   -0.7898655 
C    -3.1803171   -1.0278220   -2.0960394 
H    -3.4207134   -2.0745769   -2.2870909 
C    -2.9537389   -0.0124598   -3.0806948 
H    -3.0355128   -0.1409991   -4.1615655 
C    -2.6554888    1.2131727   -2.3984638 
H    -2.4775648    2.1811522   -2.8727142 
C    -5.8099351    2.0183645   -1.4719075 
H    -5.5804761    3.0066755   -1.0682762 
C    -6.1542011    0.8527290   -0.7087279 
H    -6.2534544    0.8062113    0.3773173 
C    -6.3646767   -0.2338984   -1.6247339 
H    -6.6300944   -1.2593911   -1.3609874 
C    -6.1603830    0.2642574   -2.9543888 
H    -6.2265276   -0.3187138   -3.8748456 
C    -5.8164286    1.6548215   -2.8603626 
H    -5.5764438    2.3132963   -3.6973434 
C    -2.9704071   -1.1697283    0.5097724 
C    -1.7298156   -1.5539403    1.0944166 
C    -1.7132520   -2.1093404    2.3906732 
H    -0.7628439   -2.3860199    2.8544674 
C    -2.9072021   -2.3177341    3.0953010 
H    -2.8713130   -2.7283339    4.1089910 
C    -4.1336455   -2.0158216    2.4907809 
H    -5.0726969   -2.2051836    3.0209010 
C    -4.1572488   -1.4483016    1.2093592 
H    -5.1042909   -1.1782552    0.7371685 
C     1.0495215   -2.2916717    1.1857071 
C     1.7170459   -1.4793625    2.1264389 
H     1.5326406   -0.3972397    2.1390015 
C     2.6018761   -2.0261801    3.0653033 
C     2.8198283   -3.4241941    3.0384833 
C     2.1715217   -4.2630914    2.1026716 
C     1.2895150   -3.6745630    1.1780601 
H     0.7930298   -4.3160074    0.4437891 
C    -0.5491225   -2.5469877   -1.3167558 
C    -1.2070966   -3.7800901   -1.1358790 
H    -1.4930281   -4.1081204   -0.1299364 
C    -1.5418392   -4.5855708   -2.2355519 
C    -1.2171900   -4.1166948   -3.5328426 
C    -0.6068361   -2.8593744   -3.7446218 
C    -0.2803035   -2.0905132   -2.6166841 
H     0.1504601   -1.0919768   -2.7538425 
C    -0.1870491    2.5684091    2.0258392 
C    -0.4435087    1.4990928    2.9075744 
H    -0.8235676    0.5457365    2.5254653 
C    -0.2227922    1.6404188    4.2840585 
C     0.2644067    2.8458032    4.8036613 
H     0.4127795    2.9632751    5.8802079 
C     0.5594860    3.8969848    3.9220445 
C     0.3556965    3.7610821    2.5418194 
H     0.6401510    4.5866458    1.8872964 
C    -0.3318408    3.7364281   -0.7468094 
C    -0.5907222    5.0482624   -0.3082871 
H    -0.9348159    5.2524277    0.7084571 
C    -0.3988220    6.1296444   -1.1810520 
C    -0.0114811    5.9225324   -2.5134727 
H     0.1340357    6.7701116   -3.1876537 
C     0.1753929    4.6108957   -2.9662305 
C     0.0215436    3.5290942   -2.0902805 
H     0.1893660    2.5094923   -2.4534249 
C    -2.4388619    2.0045370    0.0818923 
H    -2.7169191    2.9779463   -0.3575383 
C    -3.2043551    1.8664967    1.4056274 
H    -4.2785787    1.7984641    1.1694691 
H    -2.9356322    0.9687642    1.9799948 
H    -3.0385333    2.7485720    2.0454866 
C    -0.5344891    7.5383140   -0.6394008 
F    -1.5221006    7.6206340    0.2811263 
F     0.6160798    7.9214072   -0.0269279 
F    -0.7922496    8.4317512   -1.6154219 
C     0.6369284    4.3118311   -4.3736207 
F    -0.1289359    3.3481535   -4.9442897 
F     0.6146330    5.3941865   -5.1700401 
F     1.9143677    3.8339682   -4.3556023 
C    -0.5491831    0.4707464    5.1881086 
F    -1.8572473    0.1276251    5.0876167 
F     0.1692368   -0.6324564    4.8383521 
F    -0.2868526    0.7335960    6.4823624 
C     1.1108827    5.1887962    4.4915263 
F     1.1044948    6.1875072    3.5794464 
F     0.3879546    5.5947458    5.5579184 
F     2.3917911    5.0352965    4.9174822 
C     3.2833554   -1.1715520    4.1066421 
H     4.3828383   -1.2546095    4.0439499 
H     3.0055153   -0.1113128    3.9893909 
H     2.9961126   -1.4969965    5.1212401 
C     2.4076516   -5.7543769    2.1075297 
H     2.6245669   -6.1112791    3.1275281 
H     1.5289536   -6.2940515    1.7183332 
H     3.2676360   -6.0224992    1.4650700 
C    -2.2537095   -5.9069606   -2.0664119 
H    -3.0453804   -6.0218021   -2.8252285 
H    -1.5564261   -6.7553775   -2.1987110 
H    -2.6980088   -5.9926344   -1.0616903 
C    -0.3506644   -2.3504779   -5.1434958 
H    -0.3420798   -1.2479104   -5.1652510 
H     0.6281210   -2.6969303   -5.5273203 
H    -1.1227259   -2.7194059   -5.8381313 
O     3.6319311   -3.9609351    4.0134770 
O    -1.6016358   -4.8719365   -4.6183772 
C     4.9749432   -4.2787887    3.6302037 
H     5.4859717   -4.6171454    4.5436577 
H     5.0061668   -5.0881159    2.8765698 
H     5.4960937   -3.3889400    3.2267774 
C    -0.6038196   -5.7566813   -5.1467646 
H    -1.0729592   -6.2861183   -5.9892189 
H     0.2794137   -5.1974376   -5.5105178 
H    -0.2769012   -6.4907422   -4.3858685 
