112
Energy =
C     1.6738287    1.9304792    2.2807346 
C     1.7121646    2.7185353    1.0903393 
C     0.5388993    3.2083966    0.4768489 
H     2.6677537    2.8185789    0.5601493 
Pd    0.5059059    0.9102187    0.6837806 
P    -0.7545825    0.1930528   -1.1451081 
P     0.2132872   -1.1508899    1.7002171 
H     0.8597459    2.1260664    2.9939886 
H    -0.3782408    3.2331105    1.0863625 
C     5.2367598    0.2393420    4.0097800 
C     5.1328984    0.3719205    2.6151605 
C     3.9709970    0.9018578    2.0445519 
C     2.8879179    1.3172944    2.8551184 
C     2.9988955    1.1568075    4.2528518 
C     4.1636475    0.6293103    4.8236921 
H     6.1469728   -0.1727893    4.4572682 
H     5.9610534    0.0585854    1.9704211 
H     3.8950867    0.9869712    0.9541619 
H     2.1664612    1.4596909    4.8965709 
H     4.2304718    0.5184422    5.9106230 
C     0.3074922    5.6656657   -3.0439869 
C    -0.8555655    5.1566111   -2.4458520 
C    -0.7620091    4.3602099   -1.3013770 
C     0.4938351    4.0346974   -0.7382208 
C     1.6563631    4.5537341   -1.3546566 
C     1.5613415    5.3685430   -2.4871878 
H     0.2368460    6.2984348   -3.9345418 
H    -1.8378689    5.3844805   -2.8718193 
H    -1.6734876    3.9761969   -0.8305579 
H     2.6438618    4.3451552   -0.9308825 
H     2.4716966    5.7757313   -2.9386673 
Fe    1.9952762   -3.3405918   -0.4748204 
C     0.4387146   -2.5440492    0.5596318 
C     0.1722874   -2.5516934   -0.8804043 
C     0.2330849   -3.9317166   -1.2998034 
C     0.5534960   -4.7568128   -0.1744552 
C     0.6835531   -3.9132548    0.9706434 
C     3.9043903   -3.6880208    0.1899613 
C     3.6204304   -4.4545879   -0.9899118 
C     3.2765878   -3.5389414   -2.0431306 
C     3.3435241   -2.2076405   -1.5102062 
C     3.7353995   -2.2988835   -0.1339231 
C    -1.5361058   -1.2925765    2.2687677 
C    -2.1111767   -2.5507004    2.5379620 
C    -3.4188458   -2.6322210    3.0329575 
C    -4.1618014   -1.4632075    3.2604758 
C    -3.5956013   -0.2090820    2.9909568 
C    -2.2866254   -0.1233280    2.4975073 
C     1.1347544   -1.5957284    3.2265972 
C     0.5661161   -1.3367007    4.4918035 
C     1.2646777   -1.6766960    5.6586413 
C     2.5330877   -2.2693363    5.5773349 
C     3.1102459   -2.5073868    4.3214140 
C     2.4198232   -2.1661753    3.1524313 
C    -0.0619850   -1.4056916   -1.8617368 
H     0.1003076   -4.2907198   -2.3203986 
H     0.7000164   -5.8380317   -0.1962800 
H     0.9248828   -4.2317066    1.9861604 
H     4.1894886   -4.0944213    1.1621037 
H     3.6458698   -5.5428107   -1.0692996 
H     2.9957073   -3.8109887   -3.0623027 
H     3.1343636   -1.2843583   -2.0556512 
H     3.8684860   -1.4575334    0.5483020 
H    -1.5388668   -3.4662728    2.3596258 
H    -1.8457777    0.8554562    2.2726839 
H    -0.4301682   -0.8898656    4.5690879 
H     2.8518570   -2.3714195    2.1738298 
H     0.9293430   -1.0264377   -2.1663351 
C    -0.7915675   -1.8525413   -3.1449618 
H    -0.1739149   -2.5868588   -3.6890447 
H    -1.7666807   -2.3154313   -2.9246940 
H    -0.9548614   -0.9970552   -3.8189131 
H    -3.8611574   -3.6124764    3.2384333 
H    -4.1753149    0.7046208    3.1559154 
H     0.8089953   -1.4838519    6.6354507 
H     4.1059409   -2.9565866    4.2481931 
H    -5.1858119   -1.5310718    3.6422602 
H     3.0730030   -2.5393896    6.4906987 
C    -5.2118272   -0.3339495   -0.0677475 
C    -4.6800915    0.9634544   -0.2071873 
C    -3.3281112    1.0925291   -0.5618806 
C    -2.5284339   -0.0468358   -0.7903756 
C    -3.0798570   -1.3290494   -0.6245520 
C    -4.4317553   -1.4868345   -0.2642122 
H    -6.2640078   -0.4481720    0.2204911 
H    -2.8916933    2.0926794   -0.6613132 
H    -2.4567581   -2.2206538   -0.7475094 
C    -5.5453754    2.1797379    0.0374957 
H    -6.3853561    2.2194993   -0.6793989 
H    -5.9863870    2.1537757    1.0505021 
H    -4.9696117    3.1147756   -0.0611298 
C    -5.0297430   -2.8665116   -0.1085810 
H    -5.5480313   -3.1749096   -1.0360170 
H    -4.2523334   -3.6176249    0.1082619 
H    -5.7709287   -2.8910137    0.7077195 
C    -0.2783730    2.7561483   -4.9576289 
C     0.8487620    2.4187024   -4.1840114 
C     0.6455406    1.6930407   -2.9987145 
C    -0.6451296    1.2726823   -2.6224128 
C    -1.7534538    1.6132767   -3.4189682 
C    -1.5816215    2.3740512   -4.5904240 
H    -0.1349717    3.3413042   -5.8741360 
H     1.5038992    1.4536782   -2.3566487 
H    -2.7570841    1.2792573   -3.1366002 
C     2.2387837    2.8122425   -4.6282287 
H     2.9447977    2.8198242   -3.7816202 
H     2.6219416    2.0998672   -5.3830830 
H     2.2432103    3.8139788   -5.0893920 
C    -2.7725456    2.7962254   -5.4216394 
H    -3.0341391    3.8511551   -5.2127692 
H    -2.5583217    2.7219299   -6.5014680 
H    -3.6608701    2.1820731   -5.2001418 
