110
Energy =
C    -2.6556626    2.2254260    0.7432730 
C    -1.7138773    2.2858666    1.7872998 
C    -0.4356683    2.9130710    1.6368077 
H    -1.9169817    1.7500453    2.7236912 
Pd   -0.5630280    1.2158555    0.2232554 
P     1.7092966    1.2212321   -0.4070998 
P    -1.4873632   -0.5820183   -1.0086297 
H    -2.4930456    2.8820274   -0.1244029 
H    -0.3630708    3.7684952    0.9490494 
C    -6.6177324    0.5694862    0.9186827 
C    -5.7894551    0.5045169    2.0521276 
C    -4.4984026    1.0347563    2.0118136 
C    -3.9993055    1.6399105    0.8322422 
C    -4.8555290    1.7188558   -0.2913146 
C    -6.1478536    1.1854191   -0.2502228 
H    -7.6292543    0.1519574    0.9537496 
H    -6.1567309    0.0409839    2.9733361 
H    -3.8778030    0.9860445    2.9118770 
H    -4.4968394    2.2000343   -1.2065375 
H    -6.7887602    1.2528079   -1.1349782 
C     2.2688331    2.9414085    4.9881025 
C     1.6025093    1.7562535    4.6335175 
C     0.7350083    1.7404192    3.5362941 
C     0.5206472    2.9073804    2.7669229 
C     1.2021447    4.0872898    3.1277528 
C     2.0640445    4.1045100    4.2319964 
H     2.9459132    2.9559378    5.8484496 
H     1.7606667    0.8420143    5.2161163 
H     0.2325714    0.8092010    3.2495849 
H     1.0493706    4.9985074    2.5407965 
H     2.5829230    5.0309267    4.4986690 
Fe    2.1568952   -3.2240383    1.3620265 
C     1.6992239   -1.3822234    0.6406192 
C     0.8003947   -2.3767222    0.0773675 
C     0.1495889   -3.0456921    1.1793968 
H    -0.5789031   -3.8514392    1.0802634 
C     0.5971218   -2.4497632    2.4029640 
H     0.2972052   -2.7524668    3.4078711 
C     1.5502210   -1.4298241    2.0750453 
H     2.1104127   -0.8185273    2.7854899 
C     3.5826882   -3.8541855    2.6752766 
H     3.7735168   -3.4153424    3.6565435 
C     4.1904919   -3.4528065    1.4384172 
H     4.9368330   -2.6654281    1.3146592 
C     3.6414015   -4.2680023    0.3930912 
H     3.9167246   -4.2229266   -0.6622378 
C     2.6865599   -5.1660431    0.9805849 
H     2.0867622   -5.9079895    0.4501683 
C     2.6554751   -4.9135492    2.3923210 
H     2.0180712   -5.4186564    3.1204730 
C     0.4853644   -2.5839798   -1.3639981 
C    -0.4893017   -1.7752084   -2.0134976 
C    -0.7397833   -1.9473510   -3.3893958 
H    -1.4838995   -1.3190934   -3.8890643 
C    -0.0536440   -2.9233837   -4.1250399 
H    -0.2564133   -3.0409671   -5.1944758 
C     0.8709871   -3.7555904   -3.4808597 
H     1.3959391   -4.5360497   -4.0412022 
C     1.1299807   -3.5834387   -2.1146136 
H     1.8570820   -4.2166150   -1.6017931 
C     2.0215809    1.5722934   -2.1940637 
C     3.2173425    2.1827711   -2.6352677 
H     3.9620432    2.5270893   -1.9112811 
C     3.4609638    2.3488616   -4.0048597 
C     2.5260790    1.9039322   -4.9531582 
H     2.7223279    2.0372699   -6.0220504 
C     1.3440256    1.2848362   -4.5242708 
C     1.0978209    1.1224822   -3.1546594 
H     0.1851727    0.6221391   -2.8304314 
C     2.7301478    2.5181930    0.4134260 
C     3.6298052    2.2537728    1.4630881 
H     3.7421582    1.2433146    1.8666473 
C     4.3991821    3.2879981    2.0169596 
C     4.2742779    4.5982717    1.5380808 
H     4.8839431    5.4008913    1.9653082 
C     3.3479328    4.8800992    0.5219041 
C     2.5735319    3.8518964   -0.0285064 
H     1.8630783    4.0808511   -0.8309406 
C     2.6177672   -0.4284266   -0.0773887 
H     3.4073005   -0.1555971    0.6413841 
C     3.3066996   -0.9839106   -1.3350517 
H     3.7631456   -1.9529777   -1.0788634 
H     2.6028601   -1.1443026   -2.1653692 
H     4.0952252   -0.2998450   -1.6855147 
C    -4.4700184    1.2586913   -4.0965214 
C    -3.2891400    1.9293708   -3.7420385 
C    -2.4154432    1.3614355   -2.8045781 
C    -2.7000307    0.1070101   -2.2220180 
C    -3.8942180   -0.5520358   -2.5750735 
C    -4.7714726    0.0224310   -3.5060331 
H    -5.1576320    1.7032148   -4.8234367 
H    -3.0514681    2.9013779   -4.1865367 
H    -1.5115300    1.9066107   -2.5107703 
H    -4.1576871   -1.5048886   -2.1089945 
H    -5.6997260   -0.4978297   -3.7640705 
C    -3.7749750   -3.5583037    1.7457061 
C    -3.5924012   -3.8683586    0.3878481 
C    -2.9170919   -2.9745201   -0.4536398 
C    -2.4327652   -1.7507565    0.0569152 
C    -2.6011301   -1.4585939    1.4210830 
C    -3.2726391   -2.3555900    2.2619104 
H    -4.2972934   -4.2620739    2.4021425 
H    -3.9664909   -4.8153750   -0.0147947 
H    -2.7384875   -3.2445187   -1.5000868 
H    -2.1668110   -0.5398109    1.8258724 
H    -3.3948683   -2.1182556    3.3238294 
H     4.3904414    2.8261056   -4.3324926 
H     0.6088993    0.9245880   -5.2514236 
H     5.0951994    3.0627105    2.8309837 
H     3.2298060    5.9041420    0.1524749 
