124
Energy =
C     0.2673133    0.6759881   -3.4089586 
C     1.1182044   -0.4340228   -3.1572109 
C     0.6105729   -1.7234176   -2.8531480 
H     2.1946318   -0.2538689   -3.0412328 
Pd   -0.1344341   -0.1826492   -1.3607991 
P    -0.2619518   -1.4651545    0.5656731 
P    -0.8127867    1.6980878   -0.1484562 
H    -0.7384800    0.4665762   -3.8041086 
H    -0.3893213   -1.9815168   -3.2346934 
C     1.6290467    4.7031913   -4.0918116 
C     2.4641251    3.7903250   -3.4254173 
C     2.0366066    2.4780488   -3.1979374 
C     0.7611027    2.0472009   -3.6352752 
C    -0.0599791    2.9730391   -4.3155232 
C     0.3666949    4.2872270   -4.5387892 
H     1.9658052    5.7301898   -4.2670565 
H     3.4531977    4.1050501   -3.0765636 
H     2.6960513    1.7894555   -2.6594480 
H    -1.0433274    2.6535042   -4.6737080 
H    -0.2903620    4.9881170   -5.0632661 
C     3.0187709   -5.1179369   -1.7387739 
C     3.5271166   -3.8192470   -1.5709546 
C     2.7599118   -2.7105287   -1.9399707 
C     1.4571586   -2.8700926   -2.4708738 
C     0.9598562   -4.1826135   -2.6348265 
C     1.7367047   -5.2931486   -2.2800583 
H     3.6131444   -5.9868182   -1.4410821 
H     4.5256173   -3.6651741   -1.1488296 
H     3.1866712   -1.7114769   -1.8116182 
H    -0.0440979   -4.3325074   -3.0451372 
H     1.3343728   -6.3019296   -2.4161693 
Fe   -3.5257557   -1.2910247    2.0320424 
C    -1.5346351   -1.0499595    1.7789111 
C    -2.2044627    0.2400784    1.9356329 
C    -2.8482636    0.2114763    3.2273269 
C    -2.6167960   -1.0605145    3.8448523 
C    -1.8181607   -1.8472920    2.9583968 
C    -5.5524469   -1.1730372    2.2349133 
C    -5.1550617   -0.7411555    0.9250682 
C    -4.4649091   -1.8265423    0.2922592 
C    -4.4314374   -2.9316455    1.2126475 
C    -5.1070625   -2.5261897    2.4102297 
C     1.3195790   -1.1604856    1.4687815 
C     1.5035138   -1.4219832    2.8366592 
C     2.7388263   -1.1412366    3.4408826 
C     3.7983321   -0.6056791    2.6956078 
C     3.6082032   -0.3416546    1.3317084 
C     2.3761023   -0.6052484    0.7287704 
C    -0.3591486   -3.2925658    0.4092484 
C    -1.4324140   -3.8186820   -0.3287245 
C    -1.5525450   -5.2036560   -0.5090071 
C    -0.5982077   -6.0747390    0.0310221 
C     0.4910021   -5.5434457    0.7362727 
C     0.6162315   -4.1610943    0.9289174 
C    -2.3157508    1.4001972    0.9531787 
H    -3.4574731    1.0092730    3.6522352 
H    -3.0177321   -1.3844867    4.8067510 
H    -1.4830778   -2.8737487    3.1226832 
H    -6.0775881   -0.5691187    2.9772343 
H    -5.3371688    0.2460899    0.4946422 
H    -4.0461397   -1.8125996   -0.7160484 
H    -3.9837527   -3.9075134    1.0297566 
H    -5.2369195   -3.1317005    3.3089888 
H     0.6875853   -1.8143847    3.4490440 
H     2.2161581   -0.3469948   -0.3218769 
H    -2.1660397   -3.1460581   -0.7819721 
H     1.4884555   -3.7735776    1.4607880 
H    -3.0473173    1.1092560    0.1771492 
C    -2.8180348    2.6951052    1.6185798 
H    -3.8210293    2.5295359    2.0473537 
H    -2.1426786    3.0233552    2.4258994 
H    -2.9018068    3.5082894    0.8809214 
C     2.9305127   -1.4526525    4.9107932 
F     1.7724107   -1.2968369    5.6007468 
F     3.3372406   -2.7282210    5.0942809 
F     3.8584954   -0.6439747    5.4740287 
C     4.7487455    0.1852512    0.4926246 
F     4.3011895    0.7393010   -0.6715614 
F     5.4660350    1.1265522    1.1428469 
F     5.5999985   -0.8091989    0.1457084 
C    -2.6584945   -5.7304746   -1.3957250 
F    -2.8451163   -7.0550853   -1.2531588 
F    -3.8390612   -5.1093479   -1.1388905 
F    -2.3746208   -5.4936397   -2.7061517 
C     1.5472026   -6.4841314    1.2789531 
F     1.8333748   -7.4604733    0.3826852 
F     2.7000146   -5.8327527    1.5580922 
F     1.1338566   -7.0899099    2.4144475 
H     4.7515218   -0.3768665    3.1797134 
H    -0.6832365   -7.1526604   -0.1287400 
C    -2.5494708    5.1192806   -2.7205742 
C    -3.0381356    3.8032589   -2.8598630 
C    -2.4459695    2.7922248   -2.0882565 
C    -1.4138587    3.0921165   -1.1733450 
C    -0.9516384    4.4100582   -1.0468698 
C    -1.5047816    5.4386705   -1.8380659 
H    -2.9927418    5.9166753   -3.3293383 
H    -2.7880408    1.7551404   -2.2052806 
H    -0.1623464    4.6521052   -0.3284077 
C    -4.1440227    3.4949480   -3.8441622 
H    -4.4426618    2.4345941   -3.8021358 
H    -5.0378060    4.1119910   -3.6435425 
H    -3.8237914    3.7184297   -4.8785534 
C    -0.9512223    6.8422047   -1.7496241 
H    -1.6362702    7.5799898   -2.1977433 
H    -0.7588753    7.1348410   -0.7031030 
H     0.0125691    6.9032085   -2.2897534 
C     2.8305321    2.9460491    2.3956882 
C     2.8126945    3.2445551    1.0214459 
C     1.6731623    2.8878303    0.2764431 
C     0.5655556    2.2800683    0.8993579 
C     0.6065815    1.9984783    2.2803180 
C     1.7415370    2.3276985    3.0425360 
H     3.7221750    3.1985708    2.9816532 
H     1.6523372    3.0861159   -0.7996701 
H    -0.2350336    1.5014382    2.7726887 
C     3.9803963    3.9286982    0.3456667 
H     3.6819709    4.9210934   -0.0379470 
H     4.8239177    4.0682555    1.0397834 
H     4.3401651    3.3369545   -0.5131726 
C     1.7810225    2.0468830    4.5276194 
H     2.7915432    1.7520780    4.8552442 
H     1.5005041    2.9499847    5.1014275 
H     1.0818240    1.2420918    4.8071397 
