112
Energy =
C     1.7546585   -2.8030998    0.8815789 
C     2.3117971   -2.5054571   -0.3918046 
C     3.1134072   -1.3582329   -0.6049381 
H     2.0094589   -3.1163382   -1.2513999 
Pd    1.0171456   -0.8049678    0.1309878 
P     0.9024594    1.2640166   -0.9849551 
P    -1.0117195   -0.4497335    1.2664698 
H     2.2869673   -2.4202412    1.7653078 
H     3.6040693   -0.9226275    0.2777300 
C    -0.6381406   -6.3085651    1.6088283 
C    -0.7356148   -5.6394774    0.3762814 
C     0.0362698   -4.5000062    0.1302510 
C     0.9196926   -3.9989963    1.1144935 
C     1.0115335   -4.6833062    2.3462540 
C     0.2433938   -5.8301485    2.5890239 
H    -1.2452051   -7.1989563    1.8011690 
H    -1.4242315   -6.0054672   -0.3924777 
H    -0.0722803   -3.9692174   -0.8213577 
H     1.6953889   -4.3127733    3.1181063 
H     0.3317037   -6.3502470    3.5483655 
C     5.0596604   -0.3358935   -4.3058758 
C     5.4088862    0.3088203   -3.1087471 
C     4.7569988   -0.0250487   -1.9160677 
C     3.7299586   -0.9979611   -1.8938986 
C     3.3751715   -1.6217719   -3.1130628 
C     4.0428694   -1.3044617   -4.2999030 
H     5.5781961   -0.0874366   -5.2376319 
H     6.2011807    1.0643790   -3.1003714 
H     5.0505963    0.4676886   -0.9841437 
H     2.5685258   -2.3607407   -3.1400030 
H     3.7585534   -1.8069719   -5.2299049 
Fe   -0.8675965    4.1597578    0.1846310 
C    -0.5473279    2.3049323   -0.5839170 
C    -1.3275704    2.2339877    0.6471571 
C    -2.5246507    3.0049592    0.4395279 
C    -2.4936771    3.5595260   -0.8831203 
C    -1.2773597    3.1421278   -1.5147165 
C    -0.9075152    6.1805827   -0.0691022 
C    -1.2648025    5.8370296    1.2782705 
C    -0.1660199    5.1201364    1.8583370 
C     0.8680142    5.0144002    0.8702326 
C     0.4101344    5.6710846   -0.3221442 
C     0.6924280    0.9705244   -2.7855441 
C     1.7464583    1.0928486   -3.7107810 
C     1.5242390    0.8118511   -5.0680487 
C     0.2661451    0.3846632   -5.5103458 
C    -0.7822988    0.2342978   -4.5868205 
C    -0.5714479    0.5257293   -3.2356676 
C     2.3773637    2.3404639   -0.7913542 
C     3.2533461    2.1247208    0.2896446 
C     4.3402611    2.9846469    0.5057957 
C     4.5685250    4.0574934   -0.3684954 
C     3.7001658    4.2763011   -1.4505864 
C     2.6033737    3.4299380   -1.6572481 
C    -1.0050211    1.3655847    1.8343242 
H    -3.3070466    3.1668062    1.1840059 
H    -3.2443840    4.2219319   -1.3179589 
H    -0.9576204    3.3899932   -2.5280649 
H    -1.5380357    6.7137515   -0.7830760 
H    -2.2136818    6.0635607    1.7679201 
H    -0.1293473    4.7250004    2.8738903 
H     1.8314773    4.5178617    0.9958729 
H     0.9632795    5.7644595   -1.2568083 
H     2.7439919    1.3986631   -3.3824146 
H    -1.3977760    0.4249818   -2.5261086 
H     3.0788331    1.2816232    0.9671149 
H     1.9193553    3.6191806   -2.4906992 
H     2.3516148    0.9196265   -5.7764790 
H    -1.7688337   -0.1042430   -4.9204660 
H     5.0115117    2.8125963    1.3535226 
H     3.8738841    5.1160033   -2.1314995 
H     0.1001513    0.1662317   -6.5702848 
H     5.4198124    4.7263861   -0.2058528 
H    -1.8254849    1.4551776    2.5678369 
C     0.3408174    1.7395235    2.5013490 
H     1.0202599    2.1802673    1.7561007 
H     0.1770818    2.4966715    3.2846877 
H     0.8498453    0.8759574    2.9586680 
H    -2.4151760   -0.7263043    3.1828972 
H    -2.2445987    0.3418238   -0.5847340 
C    -1.0184603   -2.0370858    5.2101929 
C    -0.4887505   -1.3844256    3.9187599 
C    -1.5747523   -1.3540969    2.8198645 
C    -2.1167904   -2.7764442    2.5561687 
C    -2.6466181   -3.4169789    3.8526162 
C    -1.5767763   -3.4439070    4.9539403 
H    -1.8168571   -1.3952172    5.6322583 
H    -0.2100319   -2.0688075    5.9627996 
H     0.3835729   -1.9509532    3.5398473 
H    -0.1373403   -0.3657796    4.1511354 
H    -2.9244756   -2.7528882    1.8074309 
H    -1.3133928   -3.4028332    2.1384399 
H    -3.5278132   -2.8464519    4.2082018 
H    -2.9985712   -4.4403491    3.6302436 
H    -0.7527292   -4.1116876    4.6402160 
H    -1.9937521   -3.8662885    5.8855435 
C    -4.9169332   -0.2326949   -0.4036155 
C    -3.8402223   -0.3045216    0.6950520 
C    -2.4483355   -0.5310432    0.0657075 
C    -2.4072627   -1.7832700   -0.8405119 
C    -3.5150413   -1.7179036   -1.9083615 
C    -4.9011617   -1.4956615   -1.2806030 
H    -4.7294200    0.6592000   -1.0339018 
H    -5.9107418   -0.0935170    0.0582872 
H    -4.0854212   -1.1320141    1.3855282 
H    -3.8446836    0.6244025    1.2923844 
H    -1.4125632   -1.8543838   -1.3204649 
H    -2.5308995   -2.7002208   -0.2371193 
H    -3.2990939   -0.8846912   -2.6065305 
H    -3.5042273   -2.6433342   -2.5118384 
H    -5.1665822   -2.3739383   -0.6593523 
H    -5.6703206   -1.4240932   -2.0700708 
