142
Energy =
C     2.8263968    1.8490346   -1.4702056 
C     3.2947327    0.5381756   -1.1574753 
C     2.8422356   -0.6118055   -1.8401659 
H     3.9273281    0.4088943   -0.2706011 
Pd    1.1186738    0.5564635   -0.8042783 
P    -0.0295541   -1.3002754    0.0931897 
P    -0.4562038    2.1816387   -0.2481758 
H     2.5279966    2.0534018   -2.5091486 
H     2.3640206   -0.4607268   -2.8202986 
C     4.0487733    5.2884940    0.8212883 
C     3.8884019    4.0456972    1.4558531 
C     3.4980891    2.9268483    0.7139479 
C     3.2420146    3.0231940   -0.6746336 
C     3.4035581    4.2793517   -1.2969457 
C     3.8101425    5.3975063   -0.5562231 
H     4.3413285    6.1694514    1.4000483 
H     4.0568792    3.9485492    2.5328101 
H     3.3835565    1.9626990    1.2219157 
H     3.2123379    4.3807536   -2.3696625 
H     3.9280338    6.3632797   -1.0579283 
C     4.1085918   -4.6550931   -1.1113586 
C     3.2494127   -4.3553953   -2.1791396 
C     2.8496666   -3.0346403   -2.4061146 
C     3.2852085   -1.9857258   -1.5627462 
C     4.1616475   -2.3045433   -0.4986372 
C     4.5687314   -3.6225514   -0.2774454 
H     4.4250451   -5.6875228   -0.9308204 
H     2.8955877   -5.1513359   -2.8427486 
H     2.1961752   -2.8064705   -3.2528746 
H     4.5325415   -1.5198413    0.1656226 
H     5.2398348   -3.8473293    0.5575080 
Fe   -4.5006446    0.1769797   -2.0133586 
C    -2.5563914    0.7670499   -1.6510920 
C    -2.9150430   -0.3710316   -0.8233908 
C    -3.3366542   -1.4318772   -1.7078746 
H    -3.6723108   -2.4169512   -1.3843279 
C    -3.2112562   -0.9803567   -3.0599790 
H    -3.4652223   -1.5536274   -3.9530445 
C    -2.7404638    0.3718080   -3.0272461 
H    -2.5730197    1.0164074   -3.8935666 
C    -5.8174202    1.7083874   -2.4072549 
H    -5.5794201    2.7335410   -2.6949459 
C    -6.0070591    1.2201979   -1.0709230 
H    -5.9485443    1.8123314   -0.1559470 
C    -6.3252711   -0.1779492   -1.1512035 
H    -6.5218254   -0.8471018   -0.3114897 
C    -6.3319077   -0.5512614   -2.5355628 
H    -6.5130502   -1.5537007   -2.9280441 
C    -6.0161423    0.6140200   -3.3114580 
H    -5.9216833    0.6544299   -4.3982142 
C    -2.7297323   -0.5329737    0.6455347 
C    -1.4851660   -0.9695838    1.1910951 
C    -1.3547346   -1.1236742    2.5864777 
H    -0.3950854   -1.4343699    3.0106601 
C    -2.4406398   -0.8859945    3.4405324 
H    -2.3188097   -1.0060081    4.5216525 
C    -3.6740866   -0.4920867    2.9075923 
H    -4.5257647   -0.3037068    3.5673288 
C    -3.8054909   -0.3114523    1.5249712 
H    -4.7556905    0.0139783    1.0954781 
C     1.2072317   -2.1380197    1.1750264 
C     2.1013237   -1.3375174    1.9173576 
H     2.0285388   -0.2463868    1.8561486 
C     3.1131034   -1.9040955    2.7077126 
C     3.2073375   -3.3142679    2.7519486 
C     2.3397271   -4.1438278    2.0082107 
C     1.3487973   -3.5358549    1.2197862 
H     0.7122360   -4.1752478    0.6028969 
C    -0.6085191   -2.5754210   -1.0759697 
C    -1.3331149   -3.6999195   -0.6296306 
H    -1.5898208   -3.8010530    0.4312556 
C    -1.7663651   -4.6806192   -1.5335129 
C    -1.4685310   -4.5034825   -2.9078782 
C    -0.7875487   -3.3619136   -3.3859817 
C    -0.3635160   -2.4083108   -2.4459566 
H     0.1281588   -1.4929273   -2.7936562 
C    -0.7470313    2.1893018    1.5756593 
C     0.3968676    1.9745631    2.3661298 
H     1.3631849    1.8124461    1.8824239 
C     0.3137499    1.9835074    3.7640518 
C    -0.9125455    2.2110015    4.4001254 
H    -0.9801172    2.2094752    5.4915540 
C    -2.0525663    2.4257759    3.6146358 
C    -1.9769297    2.4208070    2.2154837 
H    -2.8892165    2.5814970    1.6472136 
C     0.0379810    3.9388757   -0.5599623 
C     0.1537412    4.3801861   -1.8917988 
H    -0.0154037    3.6954469   -2.7296560 
C     0.4916195    5.7103290   -2.1738101 
C     0.7551010    6.6132558   -1.1365195 
H     1.0345806    7.6461323   -1.3593456 
C     0.6927193    6.1606892    0.1878520 
C     0.3287864    4.8393427    0.4802580 
H     0.2860650    4.5235147    1.5247374 
C    -2.0593031    2.1426751   -1.2541079 
H    -1.6560401    2.5729852   -2.1881292 
C    -3.1390629    3.1201744   -0.7456780 
H    -3.7759348    3.4118843   -1.5934056 
H    -3.7890796    2.6334408   -0.0050894 
H    -2.7010535    4.0366349   -0.3138101 
C     0.6799152    6.1326742   -3.6141565 
F     0.5033444    7.4572737   -3.7821939 
F     1.9396917    5.8349353   -4.0407359 
F    -0.1758582    5.4835497   -4.4391099 
C     1.0122813    7.1197516    1.3159497 
F     1.3580765    6.4597473    2.4472073 
F     2.0426153    7.9354994    0.9851327 
F    -0.0455886    7.9076672    1.6122270 
C     1.5331979    1.6460732    4.5886684 
F     1.5359178    2.2727574    5.7793220 
F     1.5871792    0.3074973    4.8359696 
F     2.6851024    1.9705751    3.9418420 
C    -3.3795759    2.6668907    4.3038198 
F    -4.4180441    2.6117969    3.4346760 
F    -3.6025624    1.7352442    5.2650563 
F    -3.4116412    3.8755387    4.9044567 
C     4.1246115   -1.0583267    3.4431543 
H     5.1321636   -1.4954174    3.3447755 
H     4.1342051   -0.0251287    3.0624774 
H     3.8936604   -1.0039543    4.5218358 
C     2.5192040   -5.6427576    2.0196826 
H     3.5891159   -5.9032917    2.0720825 
H     2.0276601   -6.0990189    2.8993786 
H     2.0804455   -6.0982690    1.1172769 
C    -2.5584828   -5.8859418   -1.0858140 
H    -3.4495375   -6.0240218   -1.7213124 
H    -1.9607340   -6.8120159   -1.1725053 
H    -2.8752008   -5.7856633   -0.0352128 
C    -0.5590856   -3.1581284   -4.8649053 
H     0.4018837   -3.5998578   -5.1917030 
H    -1.3586940   -3.6392207   -5.4513032 
H    -0.5289101   -2.0837044   -5.1118775 
O     4.2615562   -3.8854000    3.4311775 
O    -1.9517021   -5.4345546   -3.8005278 
C     4.0124449   -4.2459481    4.7980837 
H     4.9508308   -4.6731736    5.1814975 
H     3.7364432   -3.3606391    5.4013861 
H     3.2062484   -4.9998010    4.8733475 
C    -1.0220902   -6.4462586   -4.2136410 
H    -1.5698647   -7.1094739   -4.8993585 
H    -0.1544082   -6.0076422   -4.7423029 
H    -0.6576198   -7.0305398   -3.3473482 
