124
Energy =
C     2.0758268    1.5037740    1.5120032 
C     2.2590068    1.9138740    0.1569097 
C     1.3018246    2.7350397   -0.4787494 
H     3.1055688    1.5167380   -0.4187415 
Pd    0.4262925    0.7075586    0.1905852 
P    -0.8978641    0.0390923   -1.6206195 
P    -0.6001960   -0.7743455    1.7197017 
H     1.4890878    2.1658496    2.1656426 
H     0.6320851    3.2927665    0.1938699 
C     4.9695298   -0.9591149    3.5385518 
C     4.6819065   -1.1893176    2.1834258 
C     3.7399546   -0.3981118    1.5191984 
C     3.0559523    0.6375804    2.1960822 
C     3.3599617    0.8617381    3.5579661 
C     4.3086707    0.0736964    4.2210688 
H     5.7066898   -1.5794334    4.0586052 
H     5.1865181   -1.9978090    1.6442858 
H     3.5085655   -0.6031741    0.4690317 
H     2.8486566    1.6684217    4.0937022 
H     4.5352405    0.2687239    5.2744908 
C     1.6119884    4.4925615   -4.3829218 
C     0.9336977    5.1530801   -3.3488855 
C     0.8128251    4.5475500   -2.0931782 
C     1.3924180    3.2821850   -1.8381406 
C     2.0694041    2.6274294   -2.8935517 
C     2.1734853    3.2251411   -4.1516504 
H     1.6934382    4.9526319   -5.3726165 
H     0.4927337    6.1401832   -3.5218600 
H     0.2857464    5.0693128   -1.2861416 
H     2.5035497    1.6355708   -2.7337244 
H     2.6808204    2.6963993   -4.9645748 
Fe   -3.4980981    1.5346840   -0.0373327 
C    -2.6261244    0.0085997   -1.0728868 
C    -3.0656247   -0.4455949    0.2428766 
C    -4.4868276   -0.2108970    0.3063245 
C    -4.9226326    0.3741181   -0.9249414 
C    -3.7830726    0.5118397   -1.7790631 
C    -4.5875966    3.1794320    0.4750698 
C    -3.8340771    2.7070533    1.6016173 
C    -2.4404645    2.7390945    1.2513933 
C    -2.3398905    3.2331075   -0.0897021 
C    -3.6629421    3.5041394   -0.5725310 
C    -2.3608800   -1.3171947    1.2620874 
H    -5.1186050   -0.4435896    1.1663495 
H    -5.9398344    0.6912007   -1.1618047 
H    -3.7777870    0.9350091   -2.7844500 
H    -5.6748558    3.2572826    0.4189125 
H    -4.2561864    2.3831435    2.5536046 
H    -1.6047370    2.4489388    1.8898871 
H    -1.4158217    3.3648786   -0.6511682 
H    -3.9245868    3.8726613   -1.5663289 
H    -2.9327014   -1.2256267    2.2017347 
C    -2.4106453   -2.8022271    0.8261250 
H    -3.4181018   -3.0273949    0.4356624 
H    -1.6762938   -3.0224250    0.0379260 
H    -2.2076259   -3.4734527    1.6738642 
C     1.9140023   -4.6740519    2.2800593 
C     2.1348425   -3.7713621    1.2266109 
C     1.3579123   -2.6151098    1.1204384 
C     0.3345312   -2.3222405    2.0408696 
C     0.0767212   -3.2313355    3.1075993 
C     0.8827728   -4.3803813    3.1942807 
H     2.9159056   -3.9640521    0.4836719 
H     1.5434782   -1.9156404    0.3020207 
H     0.6876770   -5.0870697    4.0105041 
C    -1.0218203    1.1683489    5.9073895 
C    -2.1144658    1.2372846    5.0257682 
C    -1.9872467    0.6448209    3.7544628 
C    -0.7931133    0.0096721    3.3712213 
C     0.2883425   -0.0435737    4.2737917 
C     0.1826166    0.5273705    5.5536843 
H    -1.1163451    1.6092510    6.9071647 
H    -2.8353507    0.6740665    3.0638568 
H     1.2026221   -0.5760053    3.9940744 
C     2.7640976   -5.9119201    2.4479040 
H     3.5545502   -5.7373709    3.2023622 
H     2.1644220   -6.7698589    2.7968800 
H     3.2606269   -6.1924050    1.5043076 
C    -1.0032405   -3.0381284    4.1524099 
H    -1.8558320   -2.4459981    3.7858768 
H    -1.3830976   -4.0143724    4.4965305 
H    -0.6065963   -2.5014699    5.0333252 
C    -3.3945195    1.9414326    5.4197384 
H    -4.2810997    1.4186692    5.0206407 
H    -3.4995549    2.0084066    6.5149225 
H    -3.4107834    2.9735899    5.0212441 
C     1.3313440    0.4515079    6.5355274 
H     1.8843938    1.4094431    6.5680233 
H     0.9695809    0.2517910    7.5586118 
H     2.0473332   -0.3382019    6.2567360 
C    -0.0115423   -4.3881724   -2.8520001 
C    -1.3102064   -3.9145428   -2.7805692 
C    -1.5577578   -2.5646701   -2.4239318 
C    -0.5105685   -1.6908655   -2.1439336 
H     0.1840114   -5.4349804   -3.1083600 
H    -2.1547985   -4.5795189   -2.9866738 
H    -2.5919694   -2.2129478   -2.3470843 
C     0.8496745   -2.1406713   -2.2717566 
C     1.0942840   -3.5218852   -2.6104975 
C     2.4407781   -3.9845384   -2.7116090 
C     3.5097472   -3.1261824   -2.5150035 
C     3.2722917   -1.7577072   -2.2171738 
C     1.9761737   -1.2817741   -2.1017703 
H     2.6148521   -5.0374611   -2.9587787 
H     4.5369482   -3.4944836   -2.6024275 
H     4.1185497   -1.0750854   -2.0846416 
H     1.7994727   -0.2251572   -1.8691756 
C    -0.2275766    0.3923246   -4.3279107 
C    -0.8752936    0.9391744   -3.2219328 
C    -1.4663962    2.2351867   -3.3336955 
C    -1.4234594    2.9304666   -4.5265884 
H     0.2337320   -0.5977345   -4.2748074 
H    -1.9772634    2.6606259   -2.4708462 
H    -1.8890877    3.9192518   -4.5966768 
C    -0.7592487    2.3975589   -5.6695751 
C    -0.1426423    1.1006454   -5.5596957 
C     0.5502386    0.5657012   -6.6861158 
C     0.6350652    1.2842120   -7.8676669 
C     0.0227144    2.5631085   -7.9760197 
C    -0.6631929    3.1065096   -6.9011291 
H     1.0177119   -0.4216274   -6.6005202 
H     1.1720471    0.8676572   -8.7261144 
H     0.0944459    3.1177295   -8.9174255 
H    -1.1338139    4.0923745   -6.9833931 
