124
Energy =
C     3.1969937   -0.8368931   -0.1432978 
C     2.9606502    0.2349473   -1.0123935 
C     2.5505408    1.5295047   -0.5430183 
H     3.0314235    0.0649024   -2.0939720 
Pd    0.9422944    0.1027228   -0.0763046 
P    -0.5796286    1.6621932    0.7937049 
P    -0.6715768   -1.6453831   -0.3026063 
H     3.2559138   -0.6102664    0.9324694 
H     2.9306891    1.8487572    0.4365487 
C     4.6986741   -4.7357143   -1.1394414 
C     4.6925867   -4.2834247    0.1889340 
C     4.1975114   -3.0107354    0.4921130 
C     3.7026659   -2.1590858   -0.5245371 
C     3.7390470   -2.6211011   -1.8620407 
C     4.2244515   -3.8964620   -2.1628336 
H     5.0799767   -5.7333345   -1.3798224 
H     5.0735260   -4.9248052    0.9901527 
H     4.1835832   -2.6662294    1.5325216 
H     3.3788317   -1.9839109   -2.6748593 
H     4.2398214   -4.2393174   -3.2025856 
C     1.7259851    4.7357070   -3.3112101 
C     1.5357767    3.4005928   -3.7055968 
C     1.7984293    2.3575326   -2.8115548 
C     2.2730618    2.6204487   -1.5031068 
C     2.4775525    3.9679930   -1.1297647 
C     2.1988988    5.0137799   -2.0198661 
H     1.5123155    5.5522423   -4.0082270 
H     1.1659178    3.1726823   -4.7107849 
H     1.6051176    1.3252017   -3.1231431 
H     2.8746615    4.1947172   -0.1341047 
H     2.3639271    6.0502486   -1.7074958 
Fe   -0.9773663   -0.5974155    3.4338450 
C    -1.5487611    0.7940952    2.0581316 
C    -2.2093737   -0.4753757    1.7837860 
C    -2.9502876   -0.8320322    2.9655310 
C    -2.7741744    0.1943912    3.9486908 
C    -1.9102406    1.1962852    3.4001031 
C     1.0572537   -0.5829430    3.7148900 
C     0.3673900   -0.3918745    4.9571331 
C    -0.4781551   -1.5332584    5.1717762 
C    -0.3150603   -2.4251298    4.0580583 
C     0.6373473   -1.8341840    3.1615859 
C    -2.3398221   -1.1206715    0.4163139 
H    -3.5463601   -1.7357630    3.0968750 
H    -3.1951761    0.1967204    4.9557702 
H    -1.5786029    2.0959333    3.9176089 
H     1.7719976    0.1014312    3.2593712 
H     0.4532215    0.4742612    5.6159341 
H    -1.1483279   -1.6826939    6.0203317 
H    -0.8281129   -3.3789818    3.9214717 
H     1.0000181   -2.2532419    2.2278539 
H    -2.0134052    1.4229683   -1.0704613 
C    -2.3134557    3.7271183   -2.4579965 
C    -1.3118936    3.4187764   -1.3310180 
C    -1.8639141    2.3024113   -0.4204180 
C    -3.2438496    2.6597279    0.1718569 
C    -4.2306762    2.9753221   -0.9696857 
C    -3.6992815    4.0835768   -1.8951753 
H    -2.3985956    2.8395114   -3.1169332 
H    -1.9217475    4.5485474   -3.0843469 
H    -1.1339801    4.3379106   -0.7433104 
H    -0.3406545    3.1195015   -1.7553028 
H    -3.6266112    1.8276789    0.7893670 
H    -3.1598403    3.5343396    0.8413775 
H    -4.3995724    2.0538358   -1.5628854 
H    -5.2101504    3.2606532   -0.5457689 
H    -3.6257624    5.0296992   -1.3230646 
H    -4.4129753    4.2682756   -2.7178341 
H     0.7838947    3.5711689    0.7194392 
C     2.0357175    3.9825209    3.1601944 
C     1.2376875    2.7622128    2.6690179 
C     0.2192946    3.1575438    1.5778774 
C    -0.7258462    4.2733709    2.0828641 
C     0.0896625    5.4886097    2.5661416 
C     1.1028277    5.0995518    3.6535786 
H     2.6606082    4.3673891    2.3299528 
H     2.7313540    3.6729572    3.9607192 
H     0.7021497    2.3024794    3.5194009 
H     1.9217787    1.9885757    2.2780118 
H    -1.4152728    4.5879828    1.2839116 
H    -1.3528990    3.8981411    2.9110189 
H     0.6272632    5.9263644    1.7017553 
H    -0.5991605    6.2682430    2.9374728 
H     0.5573831    4.7481938    4.5519887 
H     1.6903635    5.9810363    3.9659081 
H    -1.7388413   -2.5575258   -2.3127340 
C     0.1771156   -2.2965394   -4.3794035 
C     0.3366604   -2.1927220   -2.8536539 
C    -0.9769652   -1.7699781   -2.1573170 
C    -1.4985989   -0.4538410   -2.7719467 
C    -1.6538682   -0.5549477   -4.3003718 
C    -0.3415866   -0.9796916   -4.9769184 
H    -0.5315432   -3.1138729   -4.6166975 
H     1.1449435   -2.5772409   -4.8335140 
H     1.1046065   -1.4306218   -2.6145140 
H     0.7096111   -3.1464680   -2.4441292 
H    -2.4714888   -0.1753656   -2.3284488 
H    -0.7847022    0.3596539   -2.5292746 
H    -2.4439324   -1.2942382   -4.5366727 
H    -2.0009359    0.4162605   -4.6973785 
H     0.4193406   -0.1866938   -4.8292065 
H    -0.4851924   -1.0788708   -6.0673729 
H    -0.8670791   -3.3879254    1.2988098 
C     1.1291017   -5.2397810    1.0644453 
C     1.0068291   -3.8867054    0.3450236 
C    -0.4650511   -3.4352353    0.2660262 
C    -1.2619157   -4.5040619   -0.5227147 
C    -1.1644271   -5.8701617    0.1863741 
C     0.2951183   -6.3199334    0.3580719 
H     0.7826107   -5.1244732    2.1111177 
H     2.1915074   -5.5369660    1.1107376 
H     1.4244254   -3.9751726   -0.6745409 
H     1.6249127   -3.1277785    0.8459641 
H    -2.3187252   -4.2271340   -0.6485051 
H    -0.8327342   -4.5960129   -1.5385032 
H    -1.6486759   -5.7937059    1.1802810 
H    -1.7365032   -6.6224102   -0.3859350 
H     0.7329493   -6.5168296   -0.6404307 
H     0.3405980   -7.2718398    0.9165247 
H    -2.6277519   -0.3043280   -0.2711285 
C    -3.4691429   -2.1613026    0.3600019 
H    -3.6235363   -2.5293991   -0.6672092 
H    -3.2725568   -3.0254930    1.0156590 
H    -4.4120431   -1.6939061    0.6928923 
