106
Energy =
C    -1.5700948   -2.2469471   -0.9998646 
C    -0.4548158   -2.4923303   -1.8421641 
C     0.7539849   -3.0455979   -1.3243138 
H    -0.4593784   -2.1023942   -2.8685286 
Pd    0.2779197   -1.1448777   -0.2885282 
P     2.3817345   -0.4720435    0.3489758 
P    -0.6283536    0.8742506    0.4967851 
H    -1.6579232   -2.8677258   -0.0947246 
H     0.6724033   -3.7358674   -0.4709894 
C    -5.2793384   -0.4274199   -2.1952274 
C    -4.1170160   -0.1878550   -2.9470590 
C    -2.8998495   -0.7594675   -2.5649526 
C    -2.8177558   -1.5882210   -1.4212530 
C    -3.9899015   -1.7985747   -0.6613301 
C    -5.2085509   -1.2287151   -1.0467844 
H    -6.2327544    0.0161996   -2.4994550 
H    -4.1613459    0.4473185   -3.8380370 
H    -2.0053561   -0.5558673   -3.1617507 
H    -3.9413153   -2.4240784    0.2364542 
H    -6.1056048   -1.4097361   -0.4464495 
C     4.3351900   -3.4485029   -3.6830132 
C     3.4917517   -2.3413704   -3.8744081 
C     2.3311510   -2.2006503   -3.1087818 
C     1.9857643   -3.1662772   -2.1348328 
C     2.8502465   -4.2639943   -1.9414515 
C     4.0111410   -4.4065575   -2.7122239 
H     5.2448626   -3.5575612   -4.2824757 
H     3.7479236   -1.5784033   -4.6171165 
H     1.7042009   -1.3115569   -3.2367832 
H     2.6024144   -5.0157885   -1.1839648 
H     4.6670591   -5.2682663   -2.5509981 
Fe    1.3844841   -0.9869879    3.5028957 
C     2.3439738    0.0819876    2.0677246 
C     1.2832217    0.8806097    2.6723609 
C     1.5944484    0.9610041    4.0788660 
C     2.7952712    0.2274651    4.3396707 
C     3.2630597   -0.3215108    3.1047709 
C     1.1724806   -2.9346781    2.9165499 
C     1.6929047   -2.8612200    4.2502028 
C     0.7502400   -2.1436109    5.0600448 
C    -0.3584569   -1.7717176    4.2281949 
C    -0.1010468   -2.2697038    2.9047910 
C     0.2519841    1.7314705    1.9618088 
H     1.0006720    1.4809266    4.8312479 
H     3.2540657    0.0803367    5.3190365 
H     4.1406169   -0.9538693    2.9636039 
H     1.6712265   -3.3861466    2.0585156 
H     2.6579046   -3.2482033    4.5826640 
H     0.8686829   -1.8982718    6.1170317 
H    -1.2355626   -1.2100252    4.5543141 
H    -0.7540700   -2.1659966    2.0354901 
H     0.8248290    2.5122310    1.4245190 
C    -0.7180950    2.4289012    2.9303843 
H    -0.1587988    3.1213342    3.5824975 
H    -1.4828525    3.0091550    2.3901666 
H    -1.2451507    1.6981457    3.5648702 
C     2.9502859    0.9886742   -0.5534631 
C     3.3031892    2.2550604   -0.1334453 
C     3.4913182    3.0368860   -1.3187078 
C     3.2416849    2.1962884   -2.3745494 
H     3.4196431    2.5738864    0.9025831 
H     3.7794592    4.0862569   -1.3790640 
H     3.2591425    2.3219533   -3.4558211 
O     2.9068585    0.9519841   -1.9287544 
C     3.8013575   -1.5864275    0.2356455 
C     5.0282056   -1.4685648   -0.3820104 
C     5.7365674   -2.6831797   -0.1100965 
C     4.8957620   -3.4573601    0.6479123 
H     5.3738458   -0.6114275   -0.9587549 
H     6.7406627   -2.9482692   -0.4407608 
H     4.9774235   -4.4489471    1.0905269 
O     3.7112397   -2.8108639    0.8594805 
C    -0.2167405    3.8846942   -3.0034027 
C    -0.4934594    4.3952463   -1.7169694 
C    -0.6175680    3.4901364   -0.6500032 
C    -0.4607220    2.1033287   -0.8599762 
C    -0.1791420    1.6288978   -2.1502868 
C    -0.0580246    2.5102868   -3.2415200 
H    -0.1160505    4.5857016   -3.8412066 
H    -0.8460463    3.8784247    0.3485814 
H    -0.0255396    0.5526047   -2.2970192 
C    -5.0977905    0.8285942    1.6907033 
C    -4.1768807    0.0289864    2.3981164 
C    -2.8314192    0.0588875    2.0024135 
C    -2.4085856    0.8754087    0.9330449 
C    -3.3491210    1.6426956    0.2283163 
C    -4.7078006    1.6294589    0.6050835 
H    -6.1542925    0.8098840    1.9849112 
H    -2.0994527   -0.5519556    2.5365393 
H    -3.0347906    2.2518990   -0.6245748 
C    -0.6509977    5.8843700   -1.5026597 
H    -1.4787549    6.2864882   -2.1141671 
H    -0.8589576    6.1231768   -0.4469657 
H     0.2649255    6.4252379   -1.8020562 
C     0.2266806    1.9683690   -4.6247481 
H     0.9761105    1.1576643   -4.5879168 
H    -0.6898824    1.5434052   -5.0757370 
H     0.5962891    2.7541505   -5.3037324 
C    -4.6374119   -0.8482153    3.5412196 
H    -5.4163764   -1.5568282    3.2061239 
H    -3.8053339   -1.4350457    3.9642312 
H    -5.0790622   -0.2436200    4.3538861 
C    -5.7096736    2.4755011   -0.1473595 
H    -5.6652156    3.5278819    0.1906769 
H    -5.4994569    2.4676954   -1.2304541 
H    -6.7405283    2.1178924    0.0092112 
