110
Energy =
C    -2.1305550    0.0050605   -2.2370367 
C    -0.9055806    0.1964580   -2.9348144 
C     0.0358350   -0.8500723   -3.0169874 
H    -0.6680006    1.1771739   -3.3643906 
Pd   -0.3704980   -0.1227298   -0.7953308 
P     1.8035546   -0.4145408    0.1296326 
P    -1.6762357    0.1396945    1.1630706 
H    -2.4580405   -1.0371967   -2.1257004 
H    -0.3228417   -1.8544951   -2.7487980 
C    -5.3711100    2.8300336   -1.9888118 
C    -4.0789554    3.2812250   -2.3051872 
C    -3.0169126    2.3757426   -2.4004072 
C    -3.2199887    0.9944240   -2.1754995 
C    -4.5326948    0.5535407   -1.8822619 
C    -5.5955266    1.4596023   -1.7863059 
H    -6.1990839    3.5419627   -1.9121227 
H    -3.8981567    4.3474413   -2.4761426 
H    -2.0167812    2.7493622   -2.6427709 
H    -4.7181243   -0.5156355   -1.7309202 
H    -6.6022770    1.0949357   -1.5578146 
C     3.6492819   -0.9812386   -5.3425980 
C     3.0803704   -2.1546426   -4.8242375 
C     1.9044363   -2.0864157   -4.0697376 
C     1.2689486   -0.8464813   -3.8133116 
C     1.8412813    0.3232755   -4.3683466 
C     3.0195429    0.2547412   -5.1182734 
H     4.5717922   -1.0290341   -5.9299755 
H     3.5529320   -3.1245706   -5.0095085 
H     1.4627597   -3.0043613   -3.6665973 
H     1.3618548    1.2951179   -4.2208750 
H     3.4486779    1.1711300   -5.5362186 
Fe    0.8360691   -0.6650154    3.3424775 
C    -0.8122168    0.3241065    2.7623492 
C     0.2836514    1.2420162    2.9970526 
H     0.7128475    1.9178490    2.2591348 
C     0.7068426    1.1109425    4.3590100 
H     1.5308477    1.6528815    4.8260777 
C    -0.1152920    0.1196140    4.9854390 
H    -0.0279342   -0.2313426    6.0151603 
C    -1.0543142   -0.3635376    4.0162977 
C     1.8781117   -1.2734254    1.7406842 
C     0.9674147   -2.3079356    2.1830421 
H     0.1535377   -2.7259329    1.5949915 
C     1.2925042   -2.6553390    3.5334777 
H     0.7634794   -3.3833790    4.1507791 
C     2.4031943   -1.8497952    3.9447341 
H     2.8720061   -1.8558983    4.9303193 
C     2.7729840   -1.0017653    2.8504236 
H    -1.8049731   -1.1333058    4.2003491 
H     3.5819105   -0.2697155    2.8679883 
C     2.7620910    1.1753205    0.4975023 
C     4.2070019    0.8701681    0.0342375 
C     4.1548926   -0.0483063   -1.1965752 
C     3.1552259   -1.2075710   -0.9485677 
H     2.7269924    1.2674819    1.5955678 
H     4.7602830    1.8024172   -0.1792123 
H     4.7516756    0.3596389    0.8495061 
H     3.8108446    0.5197207   -2.0762826 
H     5.1548111   -0.4346335   -1.4521119 
H     2.6751448   -1.4530473   -1.9070869 
C    -2.8531799   -1.3315818    1.4922652 
C    -4.2075541   -0.6731398    1.8984508 
C    -4.0020912    0.7874789    2.3120906 
C    -3.0523045    1.4245995    1.2818598 
H    -2.4002482   -1.8545283    2.3538166 
H    -4.8753088   -0.6933423    1.0176485 
H    -4.7014629   -1.2573937    2.6930044 
H    -4.9632387    1.3327835    2.3431237 
H    -3.5617813    0.8480226    3.3235632 
H    -3.5227034    1.3386746    0.2854453 
C    -2.7299542    2.9300980    1.4967105 
H    -3.6301573    3.4482853    1.1110322 
C    -3.0466761   -2.3777404    0.3608922 
H    -3.4466780   -1.8337327   -0.5152831 
C     2.0975307    2.4591778   -0.0672220 
C     3.7105392   -2.5419981   -0.3748345 
H     3.9248625   -2.4158054    0.7032205 
H     1.0331853    2.3966130    0.2287263 
C    -2.5644131    3.3543474    2.9676515 
H    -2.3550425    4.4372202    3.0191370 
H    -3.4784594    3.1688624    3.5560030 
H    -1.7291898    2.8269450    3.4579220 
C    -1.5397031    3.4073334    0.6509498 
H    -1.5059068    4.5095225    0.6048203 
H    -0.5878514    3.0681119    1.0913243 
H    -1.5915223    3.0187621   -0.3787697 
C    -4.0999639   -3.4276387    0.7760165 
H    -3.7821910   -3.9542828    1.6949197 
H    -5.0906800   -2.9830022    0.9632695 
H    -4.2189257   -4.1831590   -0.0197884 
C    -1.7626630   -3.0993344   -0.0690779 
H    -1.9498316   -3.7321025   -0.9541195 
H    -0.9562853   -2.3819119   -0.3310500 
H    -1.3903539   -3.7593831    0.7350655 
C     5.0178502   -2.9731504   -1.0669953 
H     5.3088718   -3.9820491   -0.7263192 
H     4.8912581   -3.0090404   -2.1649724 
H     5.8571937   -2.2948952   -0.8396270 
C     2.6517664   -3.6500311   -0.5380310 
H     1.6590831   -3.3342060   -0.1745664 
H     2.5444472   -3.9190613   -1.6045077 
H     2.9384241   -4.5608297    0.0145025 
C     2.1095993    2.5647884   -1.5967877 
H     1.5029702    3.4264242   -1.9265559 
H     3.1300294    2.7014010   -1.9960802 
H     1.6811099    1.6547860   -2.0511880 
C     2.6906973    3.7161294    0.5919174 
H     2.1614999    4.6216961    0.2476534 
H     2.6061199    3.6707425    1.6929556 
H     3.7597455    3.8388160    0.3413327 
