112
Energy =
C    -0.0284067    2.1109094    2.7798886 
C    -0.1007772    2.9722776    1.6468462 
C    -1.2237651    2.9387141    0.7802738 
H     0.7873807    3.5532990    1.3660595 
Pd   -0.2063076    0.9116779    0.8957730 
P    -0.6288441    0.1992988   -1.2768370 
P     0.5846842   -1.1222140    1.7059406 
H    -0.9785326    1.8079511    3.2458635 
H    -2.1578105    2.5315168    1.1977849 
C     3.4102254    1.8055250    5.3538442 
C     3.5855493    1.9270549    3.9646179 
C     2.4740319    2.0394614    3.1241146 
C     1.1620172    2.0175891    3.6502875 
C     1.0004665    1.8866763    5.0464047 
C     2.1147270    1.7931672    5.8908845 
H     4.2806725    1.7189033    6.0123463 
H     4.5927823    1.9231358    3.5351137 
H     2.6182457    2.1091940    2.0404073 
H    -0.0090424    1.8560150    5.4696851 
H     1.9691710    1.7001535    6.9723133 
C    -1.8346791    5.1864685   -2.8353218 
C    -2.8939723    4.4959394   -2.2285521 
C    -2.6771425    3.7714734   -1.0504214 
C    -1.3986085    3.7297261   -0.4472875 
C    -0.3461194    4.4492474   -1.0605375 
C    -0.5610464    5.1625171   -2.2425632 
H    -2.0005193    5.7501782   -3.7592072 
H    -3.8931166    4.5187572   -2.6754062 
H    -3.5050697    3.2239224   -0.5876286 
H     0.6530570    4.4459589   -0.6152102 
H     0.2697710    5.7034404   -2.7070984 
Fe    0.6264368   -4.2145744   -0.1085018 
C    -0.1019991   -2.5331351    0.7732776 
C    -0.3603027   -2.5402444   -0.6630204 
C    -1.1545125   -3.7096426   -0.9472204 
C    -1.3651563   -4.4306732    0.2731413 
C    -0.7101667   -3.7236715    1.3325293 
C     2.0931986   -4.5689205   -1.4959517 
C     2.6699509   -4.1582086   -0.2503412 
C     2.2530958   -5.0916148    0.7605547 
C     1.4195970   -6.0784140    0.1352023 
C     1.3171757   -5.7532565   -1.2593066 
C    -0.0300977   -1.3705901    3.4152400 
C    -1.4200422   -1.5742175    3.5850652 
C    -1.9671981   -1.6801118    4.8680890 
C    -1.1388639   -1.5758110    5.9990115 
C     0.2321542   -1.3428845    5.8365781 
C     0.7876699   -1.2261768    4.5523716 
C     2.4075192   -1.3036954    1.7152314 
C     3.0635501   -2.2669111    2.5085584 
C     4.4557787   -2.4044623    2.4363201 
C     5.2018233   -1.5993930    1.5598014 
C     4.5519624   -0.6526072    0.7538050 
C     3.1606600   -0.5002013    0.8372384 
C     0.1022042   -1.5114117   -1.6635166 
H    -1.5080062   -4.0172744   -1.9317137 
H    -1.8949028   -5.3799834    0.3708927 
H    -0.6800052   -4.0153281    2.3831529 
H     2.2155381   -4.0615637   -2.4545343 
H     3.3056635   -3.2852315   -0.0970754 
H     2.5204316   -5.0592325    1.8171487 
H     0.9275840   -6.9143079    0.6358520 
H     0.7324603   -6.2973706   -2.0033883 
H    -2.0729119   -1.6533404    2.7083378 
H     1.8529063   -1.0022501    4.4476178 
H     2.4864188   -2.9163553    3.1737384 
H     2.6490435    0.2431086    0.2154802 
H     1.1809853   -1.3239149   -1.5025392 
C    -0.1385740   -1.9352844   -3.1186157 
H     0.2784750   -2.9433933   -3.2834369 
H    -1.2172231   -1.9664486   -3.3501672 
H     0.3512514   -1.2428031   -3.8203109 
H    -3.0430192   -1.8457951    4.9871157 
H     0.8809877   -1.2334943    6.7114944 
H     4.9604304   -3.1508637    3.0583729 
H     5.1282538   -0.0281036    0.0632069 
H    -1.5668666   -1.6657564    7.0027005 
H     6.2890065   -1.7151514    1.5023611 
C    -5.2011642   -0.1398590   -1.8792042 
C    -4.5337379   -0.9819236   -0.9670723 
C    -3.1420410   -0.8518711   -0.8348296 
C    -2.4216982    0.0804118   -1.6155544 
C    -3.1164199    0.9219241   -2.5034353 
C    -4.5148732    0.8205270   -2.6428293 
H    -6.2888204   -0.2308525   -1.9900115 
H    -2.6156891   -1.4846981   -0.1126100 
H    -2.5817918    1.6818264   -3.0774426 
C    -5.2997077   -1.9938564   -0.1432264 
H    -6.0071269   -1.4926452    0.5425276 
H    -5.8953194   -2.6618223   -0.7907289 
H    -4.6203462   -2.6185424    0.4602266 
C    -5.2645678    1.7455639   -3.5767559 
H    -4.5805454    2.2636405   -4.2685992 
H    -6.0109326    1.1941775   -4.1741746 
H    -5.8128230    2.5173513   -3.0043352 
C     1.7139207    2.8929938   -4.2217588 
C     0.5903582    2.2127531   -4.7260389 
C    -0.1480322    1.3904105   -3.8527328 
C     0.2107156    1.2799121   -2.4959671 
C     1.3423654    1.9754324   -2.0237934 
C     2.1114021    2.7832045   -2.8760475 
H     2.2974748    3.5283952   -4.8991898 
H    -1.0009919    0.8306085   -4.2480504 
H     1.6078169    1.8975008   -0.9607462 
C     0.1609679    2.3767434   -6.1669850 
H    -0.6158452    3.1606616   -6.2484196 
H     1.0041297    2.6768631   -6.8105353 
H    -0.2699427    1.4443095   -6.5694177 
C     3.2966826    3.5603014   -2.3490509 
H     3.6316427    3.1749685   -1.3712644 
H     4.1495623    3.5214474   -3.0481070 
H     3.0339912    4.6271749   -2.2160655 
