124
Energy =
C     3.0388127   -0.9562756   -1.3508472 
C     2.9528945    0.4473992   -1.5581662 
C     3.0470560    1.3507276   -0.4750455 
H     2.7161689    0.8268654   -2.5608652 
Pd    1.2593969   -0.0821216   -0.2604007 
P    -0.3501189    1.4210920    0.6859413 
P    -0.0988290   -1.9946582    0.0217246 
H     3.6116805   -1.2909261   -0.4737585 
H     3.5365394    0.9793431    0.4379522 
C     2.8870315   -3.7785593   -4.6024957 
C     2.0477921   -2.6512260   -4.6147286 
C     2.0925466   -1.7293769   -3.5642146 
C     2.9679571   -1.9182573   -2.4713404 
C     3.8163489   -3.0474942   -2.4793190 
C     3.7784179   -3.9668533   -3.5361281 
H     2.8489559   -4.5021259   -5.4230733 
H     1.3506891   -2.4955698   -5.4447550 
H     1.4200357   -0.8653175   -3.5728141 
H     4.5166799   -3.2012728   -1.6508656 
H     4.4458190   -4.8347206   -3.5249925 
C     3.1192224    5.6357236   -0.8677889 
C     2.4047538    4.8638695   -1.8004161 
C     2.3749332    3.4703959   -1.6863544 
C     3.0435542    2.8165746   -0.6258292 
C     3.7665680    3.6048964    0.2979589 
C     3.8100003    4.9995505    0.1743354 
H     3.1421970    6.7263056   -0.9590219 
H     1.8684118    5.3524471   -2.6207583 
H     1.8140630    2.8820052   -2.4194297 
H     4.3030645    3.1146116    1.1178256 
H     4.3790438    5.5918146    0.8981320 
Fe   -2.6579029    0.3615687    3.2740354 
C    -1.8214594    0.5917621    1.3965109 
C    -1.9254325   -0.8156584    1.7622738 
C    -3.3146648   -1.0969236    2.0165346 
C    -4.0711262    0.1050289    1.8401329 
C    -3.1588055    1.1509847    1.4891888 
C    -2.3292114    1.8618125    4.6383453 
C    -3.6742614    1.3759733    4.7269376 
C    -3.6202166   -0.0254192    5.0320359 
C    -2.2415987   -0.4046335    5.1372329 
C    -1.4422606    0.7595912    4.8904110 
C    -0.8392528   -1.8654018    1.7613741 
H    -3.7128103   -2.0637461    2.3318303 
H    -5.1446919    0.2194265    2.0014057 
H    -3.4305152    2.1936886    1.3383421 
H    -2.0366815    2.8922577    4.4290925 
H    -4.5806448    1.9620074    4.5636591 
H    -4.4785052   -0.6911770    5.1408858 
H    -1.8741511   -1.4072239    5.3636191 
H    -0.3534110    0.8047671    4.9106854 
H    -0.0371907    3.1391982   -0.8768719 
C    -2.2945789    4.2662960   -1.8771996 
C    -2.1773364    3.3257277   -0.6621819 
C    -0.9069357    2.4587570   -0.7855066 
C    -0.9804391    1.6257399   -2.0815135 
C    -1.1534729    2.5217726   -3.3212470 
C    -2.3624151    3.4613224   -3.1853098 
H    -1.4210681    4.9475096   -1.8994070 
H    -3.1913745    4.9021902   -1.7690633 
H    -3.0620813    2.6653112   -0.6471037 
H    -2.1852978    3.9054599    0.2773668 
H    -0.0665254    1.0059558   -2.1784632 
H    -1.8326173    0.9247156   -2.0098559 
H    -0.2373272    3.1292047   -3.4579798 
H    -1.2512408    1.8902003   -4.2229455 
H    -3.2931568    2.8602636   -3.1906183 
H    -2.4195883    4.1391472   -4.0554821 
H    -0.7760460    2.6793713    2.6576034 
C     0.7619195    5.0055608    2.7622940 
C     0.4371633    4.0996667    1.5580642 
C     0.1316418    2.6624063    2.0272552 
C     1.2936435    2.0998330    2.8726921 
C     1.6166686    3.0128644    4.0684968 
C     1.9155892    4.4482961    3.6100391 
H    -0.1422260    5.1056968    3.3957451 
H     1.0052319    6.0193898    2.3965863 
H     1.2931415    4.0965502    0.8642979 
H    -0.4187790    4.5245948    1.0099541 
H     1.0444080    1.0835979    3.2220319 
H     2.1861803    2.0021418    2.2267666 
H     0.7529378    3.0238969    4.7621707 
H     2.4697783    2.5973441    4.6348765 
H     2.8438212    4.4527394    3.0071379 
H     2.0998779    5.0998240    4.4826630 
H    -2.1157275   -1.0626630   -0.7515068 
C    -3.9338650   -2.9374298   -1.5536134 
C    -2.6312615   -3.1527052   -0.7599033 
C    -1.6316878   -2.0119532   -1.0580097 
C    -1.3392403   -1.9000339   -2.5702771 
C    -2.6473563   -1.7003291   -3.3573460 
C    -3.6605547   -2.8185828   -3.0619810 
H    -4.4239583   -2.0122139   -1.1907940 
H    -4.6332838   -3.7684214   -1.3512486 
H    -2.1890035   -4.1256207   -1.0423107 
H    -2.8559262   -3.2053785    0.3184007 
H    -0.6479032   -1.0619869   -2.7528355 
H    -0.8290874   -2.8087990   -2.9330356 
H    -3.0926511   -0.7231930   -3.0817294 
H    -2.4265519   -1.6521053   -4.4390559 
H    -3.2590183   -3.7812030   -3.4357540 
H    -4.6027307   -2.6364262   -3.6089376 
H    -0.0962976   -4.2893502    0.6994097 
C     2.4724786   -5.2718246    0.8549028 
C     2.0181351   -3.8122228    0.6709896 
C     0.6098584   -3.7462428    0.0368761 
C     0.6239415   -4.4711668   -1.3282482 
C     1.0884641   -5.9314374   -1.1622442 
C     2.4610292   -6.0319246   -0.4800316 
H     1.7970860   -5.7742325    1.5755516 
H     3.4821060   -5.2904586    1.3036783 
H     2.7226017   -3.2929842    0.0001850 
H     2.0531484   -3.2819950    1.6356768 
H    -0.3779995   -4.4665034   -1.7842458 
H     1.2969249   -3.9410962   -2.0230695 
H     0.3378819   -6.4810452   -0.5598215 
H     1.1144223   -6.4170475   -2.1543443 
H     3.2287655   -5.6000447   -1.1492484 
H     2.7341369   -7.0906284   -0.3226701 
H    -1.3314216   -2.8354242    1.9539355 
C     0.2569686   -1.6603610    2.8227551 
H    -0.2150928   -1.4235731    3.7867578 
H     0.8698858   -2.5656513    2.9517544 
H     0.9263956   -0.8258393    2.5511018 
