134
Energy =
C     2.9667652    0.8219881   -1.6537799 
C     1.9908553    0.7426636   -2.6822230 
C     0.9612747    1.6989421   -2.8345155 
H     1.9862093   -0.1453865   -3.3271924 
Pd    0.8420006    0.6357485   -0.8101843 
P    -1.5035375    0.6370234   -0.7478557 
P     1.2384041   -0.1484564    1.4211699 
H     3.1924810    1.8151510   -1.2403102 
H     1.1175279    2.6933627   -2.3898336 
C     6.2294250   -1.9775529   -1.7396174 
C     4.9171633   -2.4261561   -1.9631698 
C     3.8448841   -1.5307998   -1.8904771 
C     4.0656692   -0.1644323   -1.6063263 
C     5.3872736    0.2710463   -1.3605594 
C     6.4588317   -0.6284353   -1.4286689 
H     7.0679274   -2.6789602   -1.7955181 
H     4.7298887   -3.4822220   -2.1852614 
H     2.8203226   -1.8891039   -2.0355817 
H     5.5740808    1.3265728   -1.1327148 
H     7.4783088   -0.2731843   -1.2468072 
C    -1.7819021    1.6302151   -6.1475757 
C    -1.2977450    0.4209537   -5.6214912 
C    -0.4220722    0.4299479   -4.5312418 
C    -0.0149347    1.6483104   -3.9385890 
C    -0.5227713    2.8555539   -4.4666746 
C    -1.3918084    2.8447536   -5.5654588 
H    -2.4753984    1.6244358   -6.9934290 
H    -1.6076259   -0.5311144   -6.0646620 
H    -0.0480809   -0.5166062   -4.1281511 
H    -0.2313601    3.8094182   -4.0151658 
H    -1.7765777    3.7898998   -5.9609974 
Fe   -1.0233037   -4.0979082   -1.0135773 
C    -0.9316258   -2.0578105   -1.1508044 
C    -0.4629593   -2.5006218    0.1529298 
C     0.6286361   -3.4180672   -0.0690627 
H     1.1608319   -3.9635157    0.7108299 
C     0.8562259   -3.5265851   -1.4819021 
H     1.5937052   -4.1706547   -1.9648376 
C    -0.1012200   -2.6905406   -2.1469637 
H    -0.2165594   -2.5831129   -3.2275930 
C    -2.5721295   -4.9530066   -2.0514426 
H    -3.1387381   -4.5044644   -2.8696189 
C    -2.8941837   -4.8837954   -0.6546974 
H    -3.7632086   -4.3846440   -0.2234530 
C    -1.8897772   -5.6095143    0.0698813 
H    -1.8390621   -5.7365787    1.1529141 
C    -0.9521517   -6.1336307   -0.8796704 
H    -0.0585370   -6.7148085   -0.6443414 
C    -1.3730564   -5.7278601   -2.1902185 
H    -0.8571026   -5.9490960   -3.1264782 
C    -0.9463180   -1.9896943    1.4674617 
C    -0.2857723   -0.9218307    2.1446310 
C    -0.8354624   -0.4460271    3.3544880 
H    -0.3779509    0.3960197    3.8765582 
C    -1.9903217   -1.0130337    3.9070644 
H    -2.3939228   -0.6134647    4.8426989 
C    -2.6204769   -2.0820940    3.2599432 
H    -3.5211005   -2.5350187    3.6833169 
C    -2.0975990   -2.5537071    2.0510024 
H    -2.5759293   -3.3835487    1.5267643 
C    -2.3469127    1.0940772    0.8381328 
C    -3.5888186    0.6084431    1.2759939 
H    -4.1083086   -0.1828771    0.7390793 
C    -4.1980284    1.1521096    2.4194470 
C    -3.5926491    2.1901579    3.1325159 
H    -4.0792223    2.6159753    4.0133506 
C    -2.3523906    2.6778101    2.6940818 
C    -1.7335914    2.1354345    1.5630247 
H    -0.7660017    2.5303506    1.2371092 
C    -2.3783725    1.8809347   -1.8098397 
C    -3.2822793    1.5439575   -2.8314119 
H    -3.4875898    0.5056400   -3.0962675 
C    -3.9322772    2.5519356   -3.5582959 
C    -3.6890890    3.9045058   -3.2880376 
H    -4.1904935    4.6866501   -3.8641025 
C    -2.7648699    4.2397552   -2.2903723 
C    -2.1159837    3.2400367   -1.5560478 
H    -1.3964256    3.5377414   -0.7876120 
C    -2.0152319   -1.0378149   -1.4519476 
H    -1.9160416   -0.8064601   -2.5293027 
C    -3.4521839   -1.5266958   -1.1980788 
H    -3.6665094   -2.3508648   -1.8953205 
H    -3.5581449   -1.9188531   -0.1764289 
H    -4.2018231   -0.7344081   -1.3615039 
C    -4.9183582    2.1817578   -4.6466794 
F    -4.7727712    2.9811961   -5.7309613 
F    -4.7526972    0.9001518   -5.0578299 
F    -6.1942831    2.3091268   -4.2211915 
C    -2.3690518    5.6841193   -2.0765761 
F    -2.0012774    5.9174046   -0.7953539 
F    -1.2990135    6.0009253   -2.8595756 
F    -3.3634503    6.5357105   -2.3924811 
C    -5.5404401    0.5951228    2.8473452 
F    -6.0161451    1.2036124    3.9512635 
F    -6.4576878    0.7326048    1.8620275 
F    -5.4509925   -0.7349974    3.1157448 
C    -1.6447279    3.7402748    3.5011196 
F    -0.7636860    4.4423566    2.7467161 
F    -2.5008359    4.6091670    4.0658375 
F    -0.9284905    3.1661967    4.5138521 
H     0.6343721    1.7951585    2.6706077 
C     2.7163248    3.6369860    2.5973465 
C     2.5026382    2.3548207    1.7730828 
C     1.6265697    1.3276459    2.5332230 
C     2.1947782    1.0353102    3.9451077 
C     2.3917315    2.3393169    4.7429072 
C     3.2937871    3.3269617    3.9871616 
H     1.7470376    4.1564704    2.7127723 
H     3.3819685    4.3221762    2.0420476 
H     3.4815545    1.9014139    1.5297134 
H     2.0192698    2.5988603    0.8061535 
H     1.5374912    0.3450673    4.5000171 
H     3.1698655    0.5294710    3.8578534 
H     1.4099947    2.8091329    4.9317090 
H     2.8244134    2.0947147    5.7294672 
H     4.3069967    2.8915876    3.8772613 
H     3.4112042    4.2593203    4.5672369 
H     2.5020598   -2.0499386    0.7363233 
C     3.3908752   -3.5144408    2.9125007 
C     2.3375622   -2.3907643    2.8711982 
C     2.5839752   -1.4551102    1.6650896 
C     4.0167435   -0.8806044    1.6997225 
C     5.0489582   -2.0230853    1.7246238 
C     4.8219675   -2.9555209    2.9232332 
H     3.2620756   -4.1636454    2.0226347 
H     3.2119409   -4.1522218    3.7967477 
H     2.3869535   -1.8063137    3.8083503 
H     1.3246373   -2.8258655    2.8301158 
H     4.1936042   -0.2312766    0.8312066 
H     4.1591725   -0.2629584    2.6019206 
H     4.9699147   -2.5996503    0.7848962 
H     6.0668055   -1.5947947    1.7447489 
H     4.9874666   -2.3944898    3.8642095 
H     5.5560286   -3.7809671    2.9144278 
