124
Energy =
C     2.9152239   -1.0530257   -1.1140624 
C     2.9632276    0.3453655   -1.3433331 
C     3.0261239    1.2547493   -0.2591054 
H     2.8539116    0.7356099   -2.3630567 
Pd    1.1023392    0.0171532   -0.1979879 
P    -0.4643393    1.5617434    0.5891133 
P    -0.4321911   -1.7788489   -0.1900116 
H     3.3351911   -1.3995331   -0.1600851 
H     3.3913764    0.8533621    0.6987161 
C     2.8155141   -4.0989642   -4.1660020 
C     2.4839657   -2.7736155   -4.4919523 
C     2.5018780   -1.7753441   -3.5116580 
C     2.8660674   -2.0736838   -2.1778298 
C     3.2281290   -3.4073861   -1.8748195 
C     3.1939869   -4.4098598   -2.8514145 
H     2.7948466   -4.8778129   -4.9348765 
H     2.2091080   -2.5170299   -5.5203965 
H     2.2237012   -0.7536757   -3.7891619 
H     3.5525783   -3.6577560   -0.8593155 
H     3.4760206   -5.4344095   -2.5871358 
C     3.4876158    5.5237801   -0.5801050 
C     2.8707332    4.8128136   -1.6240097 
C     2.7198050    3.4254158   -1.5405522 
C     3.1689994    2.7144373   -0.4028132 
C     3.8003678    3.4418164    0.6313869 
C     3.9621162    4.8302004    0.5425999 
H     3.6048557    6.6100502   -0.6478640 
H     2.5067403    5.3452322   -2.5089332 
H     2.2321034    2.8910339   -2.3610996 
H     4.1694245    2.9061174    1.5130361 
H     4.4584468    5.3724661    1.3540163 
Fe   -1.6802705   -0.1750634    3.4805909 
C    -1.6945635    0.8788289    1.7356562 
C    -2.3536357   -0.4125673    1.5663984 
C    -3.4438567   -0.4515960    2.5162628 
C    -3.4655292    0.7714957    3.2565193 
C    -2.3913047    1.5895547    2.7890349 
C    -0.4169481    0.3003003    5.0172580 
C    -1.5971408   -0.3497061    5.5102618 
C    -1.6824177   -1.6434205    4.8950113 
C    -0.5538294   -1.7923132    4.0227112 
C     0.2265620   -0.5885627    4.0908810 
C    -2.1837998   -1.4526913    0.4703421 
H    -4.1334882   -1.2816862    2.6684595 
H    -4.1567567    1.0202064    4.0637190 
H    -2.1360973    2.5763183    3.1737585 
H    -0.0762344    1.2983500    5.2972992 
H    -2.3156150    0.0746260    6.2138085 
H    -2.4742776   -2.3780819    5.0526461 
H    -0.3305879   -2.6730839    3.4249145 
H     1.1420539   -0.3787493    3.5356923 
H    -1.7995139    1.0197928   -1.2637239 
C    -1.6122560    2.9323122   -3.2431975 
C    -0.7584232    2.7515110   -1.9745239 
C    -1.5523315    2.0245445   -0.8713379 
C    -2.8970386    2.7143309   -0.5561539 
C    -3.7275098    2.8554669   -1.8465831 
C    -2.9523747    3.6189388   -2.9331693 
H    -1.8074579    1.9367963   -3.6885015 
H    -1.0438828    3.5087639   -3.9954039 
H    -0.4220390    3.7398970   -1.6074055 
H     0.1541070    2.1729506   -2.2077604 
H    -3.4543442    2.1334541    0.1989030 
H    -2.7258532    3.7164199   -0.1278197 
H    -3.9905340    1.8463609   -2.2233291 
H    -4.6806824    3.3653635   -1.6192376 
H    -2.7616907    4.6533757   -2.5848528 
H    -3.5593603    3.7027992   -3.8521714 
H     1.0724504    3.3599917    0.6433873 
C     1.5678656    3.9151094    3.4185770 
C     0.9228819    2.7170318    2.7002741 
C     0.2651881    3.1032521    1.3541313 
C    -0.6485912    4.3459373    1.4585644 
C     0.0819543    5.5095187    2.1544593 
C     0.5950972    5.0968869    3.5417460 
H     2.4569319    4.2471799    2.8535377 
H     1.9238377    3.5922880    4.4140414 
H     0.1578774    2.2658554    3.3540924 
H     1.6766897    1.9272839    2.5190195 
H    -0.9619129    4.6597830    0.4489410 
H    -1.5718447    4.1145354    2.0181994 
H     0.9375465    5.8280622    1.5269819 
H    -0.6007008    6.3748322    2.2291683 
H    -0.2635093    4.8115402    4.1828120 
H     1.0910276    5.9489666    4.0396102 
H     0.1978770   -2.7693090   -2.2772901 
C    -0.9791486   -1.2648830   -4.3519736 
C    -0.8655774   -0.9728271   -2.8458455 
C    -0.7440138   -2.2604471   -1.9944521 
C    -1.9342065   -3.1938544   -2.3173022 
C    -1.9971335   -3.5087146   -3.8247665 
C    -2.1348157   -2.2272740   -4.6585061 
H    -0.0330017   -1.7140481   -4.7020861 
H    -1.1046621   -0.3124440   -4.8988424 
H    -1.7732332   -0.4223087   -2.5292347 
H    -0.0062101   -0.3057006   -2.6420225 
H    -1.8720356   -4.1370084   -1.7524049 
H    -2.8797933   -2.7008453   -2.0207114 
H    -1.0755985   -4.0473850   -4.1204414 
H    -2.8428455   -4.1926386   -4.0180092 
H    -3.0997100   -1.7374085   -4.4193277 
H    -2.1600250   -2.4663432   -5.7365295 
H    -0.5879533   -3.4074658    1.5709092 
C     1.9462625   -4.1773955    2.3895548 
C     1.5279276   -3.0154163    1.4717420 
C     0.1749435   -3.2919030    0.7801819 
C     0.2381714   -4.6201029   -0.0067971 
C     0.6723027   -5.7820258    0.9085704 
C     2.0092519   -5.4994883    1.6094134 
H     1.2207522   -4.2766737    3.2209608 
H     2.9225601   -3.9486273    2.8534450 
H     2.2961838   -2.8874949    0.6935226 
H     1.4868537   -2.0631792    2.0291059 
H    -0.7429655   -4.8591366   -0.4463129 
H     0.9510331   -4.5196896   -0.8454418 
H    -0.1120603   -5.9492477    1.6733051 
H     0.7333861   -6.7106076    0.3131149 
H     2.8151690   -5.4396644    0.8513023 
H     2.2730597   -6.3332056    2.2838321 
H    -2.6750623   -1.0311116   -0.4307942 
C    -2.9171690   -2.7610070    0.8429768 
H    -2.6798683   -3.5873033    0.1588485 
H    -2.6518666   -3.0724270    1.8670823 
H    -4.0085127   -2.6070807    0.8074366 
