142
Energy =
C     2.7062977    1.9654150   -0.8715189 
C     3.2019369    0.6526563   -0.6248393 
C     2.8537132   -0.4412481   -1.4476671 
H     3.7652292    0.4616888    0.2960910 
Pd    1.0090707    0.5549497   -0.4282758 
P    -0.1226332   -1.4537052    0.0745524 
P    -0.4908987    2.2046299    0.2429987 
H     2.4665112    2.2239868   -1.9124305 
H     2.4525633   -0.2105358   -2.4460890 
C     3.5669374    5.3567687    1.6414165 
C     3.6835335    4.0562502    2.1599643 
C     3.3819024    2.9485228    1.3623853 
C     2.9922778    3.1131877    0.0117332 
C     2.8898125    4.4280192   -0.4983446 
C     3.1613620    5.5386394    0.3104561 
H     3.7767336    6.2207176    2.2787898 
H     3.9840598    3.9101215    3.2012900 
H     3.4372460    1.9452073    1.7990061 
H     2.6020566    4.5729495   -1.5448721 
H     3.0550084    6.5476094   -0.0995948 
C     4.2895262   -4.4718188   -1.0379180 
C     3.4580137   -4.1137867   -2.1095234 
C     2.9947212   -2.7993053   -2.2277162 
C     3.3405930   -1.8167673   -1.2707128 
C     4.1797653   -2.1952199   -0.1960535 
C     4.6496757   -3.5058932   -0.0835205 
H     4.6581188   -5.4984527   -0.9447301 
H     3.1763713   -4.8581644   -2.8615880 
H     2.3569724   -2.5246364   -3.0730007 
H     4.4724486   -1.4630680    0.5613040 
H     5.2920249   -3.7784829    0.7598609 
Fe   -4.4564991    0.5251877   -1.8073376 
C    -2.6676834    0.9608255   -0.9688727 
C    -2.9644603   -0.4515994   -0.7945507 
C    -3.1748077   -1.0176521   -2.1033886 
H    -3.4201477   -2.0617694   -2.3019491 
C    -2.9610909    0.0070863   -3.0809338 
H    -3.0594003   -0.1103338   -4.1616377 
C    -2.6494160    1.2250231   -2.3910671 
H    -2.4767434    2.1971358   -2.8585137 
C    -5.7848719    2.0282801   -1.4021515 
H    -5.5460832    3.0096446   -0.9870868 
C    -6.1234982    0.8528171   -0.6516735 
H    -6.2084516    0.7907646    0.4348335 
C    -6.3510226   -0.2192504   -1.5806385 
H    -6.6174215   -1.2474207   -1.3285492 
C    -6.1629611    0.2977894   -2.9054814 
H    -6.2441757   -0.2711487   -3.8334594 
C    -5.8120324    1.6854596   -2.7956246 
H    -5.5809630    2.3553403   -3.6260337 
C    -2.9273238   -1.1850615    0.4985794 
C    -1.6814906   -1.5677208    1.0733043 
C    -1.6553221   -2.1244140    2.3689915 
H    -0.7004761   -2.3994455    2.8250007 
C    -2.8434828   -2.3374289    3.0817341 
H    -2.7997559   -2.7486516    4.0949410 
C    -4.0750428   -2.0409026    2.4849947 
H    -5.0100982   -2.2351262    3.0204098 
C    -4.1085513   -1.4715664    1.2047619 
H    -5.0594709   -1.2041538    0.7390006 
C     1.0865281   -2.3512557    1.1259079 
C     1.3385166   -3.7291216    1.0253523 
H     0.8474444   -4.3246954    0.2504277 
C     2.2563838   -4.3583319    1.8832642 
C     2.9205266   -3.5718336    2.8528674 
C     2.7003264   -2.1794728    2.9655473 
C     1.7803997   -1.5885009    2.0870898 
H     1.6068414   -0.5065244    2.1510728 
C    -0.5089081   -2.4911293   -1.3793877 
C    -1.1760887   -3.7255178   -1.2470581 
H    -1.4673726   -4.0891825   -0.2550059 
C    -1.5101113   -4.4871718   -2.3774395 
C    -1.1758565   -3.9736256   -3.6554087 
C    -0.5538660   -2.7146330   -3.8181536 
C    -0.2272123   -1.9907672   -2.6604784 
H     0.2119974   -0.9911640   -2.7590061 
C    -0.1322927    2.5831282    2.0044741 
C    -0.3496293    1.5069971    2.8884576 
H    -0.7103642    0.5447452    2.5095052 
C    -0.1138816    1.6523519    4.2617675 
C     0.3503893    2.8691394    4.7761737 
H     0.5123209    2.9891207    5.8505000 
C     0.6056258    3.9284716    3.8918410 
C     0.3855193    3.7890519    2.5143023 
H     0.6393105    4.6222817    1.8569603 
C    -0.3117406    3.7200243   -0.7849851 
C    -0.5833588    5.0362697   -0.3674795 
H    -0.9221655    5.2544025    0.6481333 
C    -0.4135065    6.1038499   -1.2613157 
C    -0.0346728    5.8774403   -2.5933512 
H     0.0924840    6.7142752   -3.2844796 
C     0.1677568    4.5607493   -3.0234308 
C     0.0358864    3.4931011   -2.1265937 
H     0.2154323    2.4693070   -2.4719780 
C    -2.3982267    1.9910825    0.0949247 
H    -2.6915593    2.9676782   -0.3273230 
C    -3.1392457    1.8300207    1.4301507 
H    -4.2159799    1.7460969    1.2114468 
H    -2.8462594    0.9324385    1.9929442 
H    -2.9767355    2.7096948    2.0740578 
C    -0.5654449    7.5212922   -0.7474915 
F    -1.5269599    7.6031688    0.2003478 
F     0.5933727    7.9456780   -0.1797767 
F    -0.8732984    8.3850424   -1.7359234 
C     0.6147173    4.2400944   -4.4307603 
F    -0.1713117    3.2832761   -4.9858734 
F     0.6037461    5.3144088   -5.2382249 
F     1.8839299    3.7413717   -4.4169655 
C    -0.3974181    0.4727757    5.1664503 
F    -0.1213536    0.7361098    6.4577311 
F    -1.6967342    0.0947846    5.0845763 
F     0.3438008   -0.6123531    4.8013183 
C     1.1329088    5.2330293    4.4552693 
F     1.1006770    6.2291589    3.5411050 
F     0.4072128    5.6260503    5.5247807 
F     2.4188217    5.1072250    4.8746799 
C     2.5654761   -5.8307567    1.7572597 
H     2.0141742   -6.4217636    2.5125199 
H     2.2806939   -6.2089628    0.7623309 
H     3.6397765   -6.0163419    1.9208363 
C     3.4544268   -1.3597839    3.9850707 
H     2.9668990   -1.4145889    4.9754445 
H     4.4853652   -1.7327216    4.1000480 
H     3.4819259   -0.2959100    3.6948360 
C    -2.2327499   -5.8084894   -2.2633702 
H    -3.0577757   -5.8648222   -2.9930493 
H    -1.5548018   -6.6542203   -2.4826943 
H    -2.6354954   -5.9544287   -1.2482251 
C    -0.2908615   -2.1521744   -5.1952288 
H    -0.2991897   -1.0494539   -5.1767573 
H     0.6971246   -2.4689290   -5.5807450 
H    -1.0514196   -2.5061397   -5.9100710 
O     3.8947678   -4.1582670    3.6317473 
O    -1.5651296   -4.6885448   -4.7658728 
C     3.4609228   -4.6843106    4.8946492 
H     4.3534689   -5.1114519    5.3753952 
H     3.0411373   -3.8880249    5.5379943 
H     2.7004449   -5.4764192    4.7592430 
C    -0.5629054   -5.5329850   -5.3496199 
H    -1.0413394   -6.0386937   -6.2013404 
H     0.3019935   -4.9445639   -5.7106851 
H    -0.2064580   -6.2890993   -4.6243073 
