86
Energy =
C    -1.4497554    2.5313045   -0.6759181 
C    -0.4981882    2.3624205   -1.7043070 
C    -0.6027950    1.3114826   -2.6555341 
H     0.3896329    3.0064243   -1.7296183 
Pd   -0.3689483    0.4921513   -0.5276183 
P     0.0226247   -1.8024030   -1.0434407 
P    -0.2906837    0.4449266    1.8345293 
H    -2.4167430    2.0213364   -0.8029945 
H    -1.6106091    0.9237722   -2.8656799 
C    -1.5557434    5.7033593    2.2231396 
C    -0.4060953    5.5244693    1.4339743 
C    -0.3563819    4.5039656    0.4801183 
C    -1.4592956    3.6358184    0.2932369 
C    -2.6174874    3.8438956    1.0789279 
C    -2.6644374    4.8634469    2.0372462 
H    -1.5887819    6.5007360    2.9723886 
H     0.4577359    6.1833851    1.5680884 
H     0.5561989    4.3694392   -0.1086866 
H    -3.4887741    3.1961954    0.9322332 
H    -3.5692673    5.0064525    2.6366884 
C     2.2050508    1.0332823   -5.9104952 
C     0.8376914    0.8070821   -6.1289335 
C    -0.0689871    0.8908005   -5.0641892 
C     0.3755421    1.1964923   -3.7581119 
C     1.7537807    1.4384135   -3.5573400 
C     2.6587995    1.3565374   -4.6208272 
H     2.9142638    0.9628412   -6.7413724 
H     0.4741105    0.5692411   -7.1338361 
H    -1.1373325    0.7309902   -5.2479744 
H     2.1192344    1.6683229   -2.5498385 
H     3.7242622    1.5359769   -4.4434538 
Fe    1.0204814   -2.6354446    2.0981355 
C     0.9552821   -0.6857704    2.5161429 
C     2.1904840   -1.0092311    1.8348506 
H     2.5042638   -0.5954755    0.8741997 
C     2.8941407   -1.9799960    2.6189797 
H     3.8436277   -2.4488627    2.3548384 
C     2.1163610   -2.2573694    3.7910179 
H     2.3701395   -2.9737194    4.5744666 
C     0.9245264   -1.4616740    3.7413855 
C     0.1485714   -2.9954833    0.3289043 
C    -0.8098265   -3.1412462    1.4034513 
H    -1.7347733   -2.5743279    1.5118980 
C    -0.3377359   -4.1601266    2.2942241 
H    -0.8304382   -4.4814907    3.2134428 
C     0.9050790   -4.6586480    1.7854008 
H     1.5295523   -5.4230785    2.2510265 
C     1.2116312   -3.9518076    0.5767323 
H     0.1286796   -1.4681826    4.4876569 
H     2.1082507   -4.0963674   -0.0271100 
C     1.3977442   -2.3518939   -2.1954286 
C     0.8116137   -2.2045234   -3.6240790 
C    -0.7454437   -2.1766297   -3.5961182 
C    -1.3023259   -2.5152079   -2.1877391 
H     1.4826080   -3.4316238   -1.9774860 
H     1.1914107   -1.2813106   -4.0893530 
H     1.1830271   -3.0415903   -4.2395088 
H    -1.0923765   -1.1755836   -3.8922756 
H    -1.1724307   -2.8795037   -4.3325286 
H    -2.2467230   -1.9716250   -2.0093002 
C    -1.8805027    0.0354463    2.7686209 
C    -2.0107821    1.1372287    3.8587614 
C    -0.6231315    1.7208089    4.1702602 
C     0.0527703    2.0109967    2.8149806 
H    -1.6872262   -0.9433653    3.2416819 
H    -2.6548595    1.9466416    3.4676716 
H    -2.5070901    0.7339198    4.7586447 
H    -0.6980507    2.6465090    4.7689041 
H    -0.0127522    1.0071501    4.7551952 
H    -0.5278262    2.8003980    2.3122902 
C     1.5249575    2.4224996    2.8663243 
H     2.1443225    1.6549081    3.3619691 
H     1.9297196    2.5926394    1.8530268 
C    -3.1162716   -0.0794223    1.8653276 
H    -2.9988757   -0.8614717    1.0948931 
H    -4.0081204   -0.3244283    2.4688665 
C     2.7621859   -1.6937424   -1.9743721 
H     3.4814581   -2.0450537   -2.7351170 
H     3.1736003   -1.9433131   -0.9812820 
C    -1.5334739   -4.0202276   -1.9727448 
H    -2.2669747   -4.3828067   -2.7149586 
H    -1.9274899   -4.2390554   -0.9670945 
H    -0.6049665   -4.6025237   -2.1057062 
H     2.6904792   -0.5971759   -2.0580159 
H    -3.3136421    0.8729061    1.3447408 
H     1.6285204    3.3657684    3.4309035 
