122
Energy =
C     1.9981778    2.0267650   -1.8462096 
C     1.5399600    1.2672459   -2.9678485 
C     0.1878385    1.2890204   -3.3591380 
H     2.2306437    0.5824764   -3.4744167 
Pd    0.5328363    0.4694330   -1.1682165 
P    -1.0569260   -1.2563573   -1.3545974 
P     0.9803643    0.6650082    1.1203679 
H     1.4336866    2.9398783   -1.6152122 
H    -0.4414501    2.0861875   -2.9364229 
C     6.0931018    2.1977015   -0.5122048 
C     5.6585351    1.1116227   -1.2900660 
C     4.3300731    1.0350685   -1.7222703 
C     3.4060161    2.0580977   -1.4059842 
C     3.8650423    3.1561236   -0.6402315 
C     5.1892324    3.2213040   -0.1897155 
H     7.1311304    2.2487660   -0.1686285 
H     6.3608973    0.3147668   -1.5556269 
H     4.0055753    0.1631570   -2.2998589 
H     3.1727177    3.9738611   -0.4099303 
H     5.5202383    4.0803066    0.4031100 
C    -1.5333314   -0.5270634   -6.8508912 
C    -2.3308776    0.2005081   -5.9551134 
C    -1.7581806    0.7734775   -4.8147237 
C    -0.3789074    0.6208281   -4.5370019 
C     0.4099292   -0.1222606   -5.4467046 
C    -0.1613952   -0.6832523   -6.5913920 
H    -1.9755508   -0.9669843   -7.7507453 
H    -3.4003369    0.3314426   -6.1495552 
H    -2.3842794    1.3486317   -4.1259106 
H     1.4807764   -0.2542625   -5.2682966 
H     0.4669614   -1.2480803   -7.2872144 
Fe   -3.1391277   -0.4288268    3.3064758 
C    -1.6005161   -0.0609569    2.0211736 
C    -2.4843337   -1.0812452    1.4727405 
C    -3.8121024   -0.5198332    1.3958832 
H    -4.6893176   -1.0462167    1.0180674 
C    -3.7598414    0.8362553    1.8479054 
H    -4.6044032    1.5239071    1.9164819 
C    -2.4104795    1.1159347    2.2444459 
H    -2.0699567    2.0456107    2.7007865 
C    -2.3617700   -0.5495249    5.1936084 
H    -1.3350774   -0.3200275    5.4865538 
C    -2.8535722   -1.8326113    4.7796258 
H    -2.2680905   -2.7521580    4.7214809 
C    -4.2505165   -1.6968892    4.4729723 
H    -4.9174202   -2.4888039    4.1266534 
C    -4.6223277   -0.3304837    4.7042525 
H    -5.6127126    0.1004328    4.5466892 
C    -3.4560906    0.3784233    5.1505889 
H    -3.4064115    1.4422912    5.3906313 
C    -2.1305808   -2.4477370    1.0042773 
C    -1.3881171   -2.6636007   -0.1903755 
C    -1.0086688   -3.9768610   -0.5407288 
H    -0.4300517   -4.1546610   -1.4504845 
C    -1.3887419   -5.0726200    0.2455117 
H    -1.0794762   -6.0813973   -0.0463177 
C    -2.1877140   -4.8707928    1.3773485 
H    -2.5202652   -5.7212480    1.9814142 
C    -2.5488216   -3.5691497    1.7446295 
H    -3.1522831   -3.3908273    2.6368226 
C    -0.1366760   -0.1982802    2.3873014 
H     0.0176370    0.3951028    3.3054066 
C     0.2835940   -1.6469738    2.6970247 
H    -0.4850428   -2.0961067    3.3458912 
H     0.3607103   -2.2708672    1.7947358 
H     1.2469497   -1.6779109    3.2275060 
C     0.4854652   -3.7307485   -4.9875451 
C     1.3603600   -3.2619096   -3.9956291 
C     0.8682782   -2.4806018   -2.9417483 
C    -0.5081929   -2.1719655   -2.8604469 
C    -1.3747456   -2.6255899   -3.8708638 
C    -0.8756962   -3.3999893   -4.9282494 
H     0.8669123   -4.3413286   -5.8124343 
H     2.4270543   -3.5057549   -4.0405632 
H     1.5513228   -2.1195768   -2.1626084 
H    -2.4357946   -2.3650500   -3.8497812 
H    -1.5582013   -3.7387673   -5.7142034 
C    -5.3329945    0.4379557   -2.0324269 
C    -5.1217208   -0.9490654   -2.0994168 
C    -3.8395037   -1.4769724   -1.8982627 
C    -2.7510053   -0.6134071   -1.6541206 
C    -2.9754391    0.7730058   -1.5605854 
C    -4.2609448    1.2975889   -1.7509075 
H    -6.3379544    0.8457865   -2.1834325 
H    -5.9615995   -1.6231089   -2.2978806 
H    -3.6891900   -2.5618445   -1.9069111 
H    -2.1396941    1.4351569   -1.3061122 
H    -4.4269498    2.3767063   -1.6680477 
H     3.3036337    0.9244925    0.8403511 
C     4.5606486   -1.5874402    0.9738760 
C     3.0765163   -1.2112636    0.8241712 
C     2.7645838    0.1721987    1.4486153 
C     3.2841723    0.3041445    2.8974446 
C     4.7723466   -0.0852609    2.9888101 
C     5.0233498   -1.4955004    2.4355676 
H     5.1711170   -0.8992619    0.3614501 
H     4.7226851   -2.6050517    0.5743094 
H     2.4610951   -1.9946341    1.2973146 
H     2.7895694   -1.1899949   -0.2449735 
H     3.1593032    1.3414128    3.2498070 
H     2.6981337   -0.3390987    3.5798702 
H     5.3699830    0.6457354    2.4093079 
H     5.1059616   -0.0107496    4.0394266 
H     4.4727875   -2.2365251    3.0489829 
H     6.0945383   -1.7534344    2.5145011 
H     1.9088967    2.8308425    1.1940681 
C     0.9899560    4.3911960    3.2424938 
C     0.8057707    2.8731200    3.0492336 
C     0.9125337    2.5021264    1.5515412 
C    -0.1511749    3.2857635    0.7441878 
C     0.0244457    4.8027663    0.9332941 
C    -0.0311371    5.1926386    2.4195279 
H     2.0164464    4.6713315    2.9337524 
H     0.9037823    4.6403841    4.3153539 
H    -0.1896341    2.5830526    3.4342939 
H     1.5466135    2.3246555    3.6534409 
H    -0.0908592    3.0186628   -0.3252818 
H    -1.1613974    2.9857434    1.0709407 
H     1.0015297    5.1111653    0.5097042 
H    -0.7512001    5.3435416    0.3615145 
H    -1.0490962    4.9914184    2.8087521 
H     0.1434502    6.2765392    2.5401977 
