124
Energy =
C     1.2734046    2.7253011   -1.6310053 
C     0.4017531    3.2795903   -0.6498813 
C     0.6921852    3.2268923    0.7279433 
H    -0.5637943    3.6887247   -0.9721115 
Pd    0.5098853    1.0990118   -0.2503540 
P    -0.7064913   -0.0674948    1.4061031 
P     1.1173451   -0.8237796   -1.4625685 
H     2.3410847    2.6891035   -1.3746352 
H     1.7302825    2.9960579    1.0121859 
C     0.4336987    3.0392674   -5.8526620 
C    -0.6230560    2.9842560   -4.9293676 
C    -0.3592908    2.8659401   -3.5607125 
C     0.9686712    2.8128510   -3.0760550 
C     2.0206423    2.8981565   -4.0164968 
C     1.7571216    3.0011885   -5.3881255 
H     0.2262420    3.1221274   -6.9242429 
H    -1.6596306    3.0284143   -5.2793025 
H    -1.1985747    2.8040247   -2.8593844 
H     3.0575775    2.8992475   -3.6655250 
H     2.5895960    3.0642360   -6.0966230 
C    -1.5385351    5.1877204    3.8456887 
C    -0.2244311    4.7491754    4.0684016 
C     0.4847850    4.1100946    3.0454084 
C    -0.1017025    3.8865357    1.7775146 
C    -1.4194463    4.3561183    1.5634201 
C    -2.1283484    4.9952519    2.5851904 
H    -2.0962419    5.6880361    4.6437966 
H     0.2520731    4.9110224    5.0407431 
H     1.5142114    3.7819066    3.2250230 
H    -1.9003608    4.2134115    0.5910123 
H    -3.1476383    5.3487184    2.3981015 
Fe   -1.5750367   -3.5947880    1.3139575 
C    -1.3690325   -1.6419794    0.7481039 
C    -0.6146538   -2.5296674   -0.1284452 
C    -1.5379405   -3.4640330   -0.7165032 
C    -2.8493340   -3.1825525   -0.2160753 
C    -2.7537408   -2.0768103    0.6883131 
C    -1.0723999   -3.8704820    3.2860308 
C    -2.4291590   -4.2666717    3.0455586 
C    -2.4162010   -5.2965677    2.0449089 
C    -1.0506971   -5.5316708    1.6649193 
C    -0.2184796   -4.6484970    2.4317889 
C     0.8473196   -2.4058809   -0.4479807 
H    -1.2812138   -4.2726208   -1.4019908 
H    -3.7591291   -3.7382613   -0.4492238 
H    -3.5905512   -1.6481487    1.2369030 
H    -0.7476370   -3.1141444    4.0008835 
H    -3.3148864   -3.8526275    3.5305299 
H    -3.2917781   -5.7981446    1.6287990 
H    -0.7100140   -6.2493490    0.9162562 
H     0.8707798   -4.5918558    2.3844333 
H     1.3882359   -2.1952193    0.4858085 
C     1.4306840   -3.6824802   -1.0759669 
H     1.1426514   -4.5466448   -0.4523792 
H     1.0487001   -3.8628471   -2.0955038 
H     2.5303638   -3.6507777   -1.1243896 
H    -1.7485745    1.9148793    2.1783389 
C    -4.2266521    1.3390416    3.3588582 
C    -3.0171020    0.4286317    3.0741822 
C    -2.2026303    0.9544742    1.8687965 
C    -3.0654777    1.2508148    0.6161707 
C    -4.2977946    2.1098917    0.9540316 
C    -5.1087987    1.5081236    2.1122234 
H    -3.8615006    2.3326630    3.6850713 
H    -4.8108220    0.9221979    4.1987749 
H    -3.3683401   -0.6027158    2.8924450 
H    -2.3722772    0.3821720    3.9692935 
H    -2.4349059    1.7538060   -0.1426309 
H    -3.4020190    0.3072964    0.1516818 
H    -3.9721920    3.1264364    1.2419394 
H    -4.9256956    2.2196274    0.0515757 
H    -5.5142204    0.5215654    1.8099890 
H    -5.9787217    2.1489390    2.3412991 
H    -0.6098584   -0.9542844    3.6406104 
C     1.2640982    0.5990992    5.0720486 
C     0.5676348    0.8772402    3.7281912 
C     0.1486258   -0.4290324    3.0295553 
C     1.3656890   -1.3552159    2.8506740 
C     2.0626934   -1.6367205    4.1936577 
C     2.4731060   -0.3335163    4.8976768 
H     0.5369435    0.1356986    5.7673939 
H     1.5725650    1.5557428    5.5312017 
H     1.2647852    1.4140426    3.0572748 
H    -0.2966455    1.5446148    3.8838717 
H     1.0384374   -2.2984124    2.3831424 
H     2.0830707   -0.8695642    2.1590501 
H     1.3740556   -2.2061631    4.8485254 
H     2.9424713   -2.2838858    4.0260553 
H     3.2448830    0.1799385    4.2902392 
H     2.9353329   -0.5535734    5.8762208 
H    -0.0103101   -2.2958292   -2.9849500 
C    -0.2690128   -1.2142770   -5.4892227 
C     0.6673683   -0.7725197   -4.3473664 
C     0.0789756   -1.1911132   -2.9848327 
C    -1.3383602   -0.6007841   -2.7941451 
C    -2.2699732   -1.0416977   -3.9358651 
C    -1.6931318   -0.6645556   -5.3097759 
H    -0.3029426   -2.3216135   -5.5202230 
H     0.1526123   -0.8834487   -6.4553797 
H     0.7933371    0.3251331   -4.3787209 
H     1.6637460   -1.2253098   -4.4945396 
H    -1.7595151   -0.9037977   -1.8211063 
H    -1.2553086    0.5011354   -2.7784640 
H    -2.4125614   -2.1393373   -3.8786550 
H    -3.2679941   -0.5878010   -3.7956992 
H    -1.6649822    0.4375041   -5.3996365 
H    -2.3494907   -1.0347852   -6.1175638 
H     3.0481885   -1.9060528   -2.4424145 
C     5.2683705   -1.2940214   -0.8415579 
C     3.7683769   -1.0997757   -0.5486000 
C     2.9499372   -0.9696476   -1.8576983 
C     3.5163387    0.1930495   -2.6941478 
C     5.0065618   -0.0214057   -3.0123915 
C     5.8322699   -0.1714550   -1.7257913 
H     5.4072049   -2.2677991   -1.3511046 
H     5.8238786   -1.3554222    0.1115976 
H     3.6169167   -0.1775458    0.0491458 
H     3.4102909   -1.9388047    0.0718842 
H     2.9433390    0.3354272   -3.6213467 
H     3.4080752    1.1212045   -2.1065289 
H     5.1208363   -0.9285564   -3.6378462 
H     5.3788462    0.8258431   -3.6164047 
H     5.8054999    0.7835690   -1.1639700 
H     6.8925817   -0.3677480   -1.9643247 
