132
Energy =
C     1.2348114   -0.8519651   -3.2999906 
C     1.5810514    0.4857623   -2.9638937 
C     2.5023497    0.8087830   -1.9402068 
H     1.0123005    1.3029949   -3.4258875 
Pd    0.7647577   -0.4235792   -1.1216793 
P     0.5190402    0.6516643    0.9238375 
P    -0.7423197   -2.1459009   -0.5623235 
H     1.9905155   -1.6332160   -3.1302639 
H     3.2421176    0.0426507   -1.6610457 
C    -1.7461631   -1.8309938   -6.2617103 
C    -1.7993078   -0.5943907   -5.5961805 
C    -0.8383460   -0.2670037   -4.6353445 
C     0.2092186   -1.1638872   -4.3169766 
C     0.2584587   -2.3950123   -5.0099869 
C    -0.7096141   -2.7283249   -5.9666787 
H    -2.5035441   -2.0880494   -7.0091120 
H    -2.6030805    0.1146111   -5.8213297 
H    -0.9197311    0.6884881   -4.1064032 
H     1.0761334   -3.0934735   -4.8016903 
H    -0.6474867   -3.6883799   -6.4896724 
C     3.6506573    4.8080396   -0.8391961 
C     4.4859405    3.7177955   -0.5576181 
C     4.0905838    2.4220586   -0.9103017 
C     2.8543367    2.1867860   -1.5521235 
C     2.0169403    3.2966082   -1.8151351 
C     2.4121173    4.5908788   -1.4651423 
H     3.9572179    5.8217159   -0.5621255 
H     5.4425533    3.8756492   -0.0496784 
H     4.7497940    1.5754325   -0.6915748 
H     1.0429327    3.1517640   -2.2918200 
H     1.7489615    5.4356117   -1.6788509 
Fe    0.7544999   -1.5408373    3.7888521 
C    -0.0372861   -0.3652481    2.3224536 
C    -0.5815079   -1.7175557    2.2775569 
C    -1.2227948   -1.9499917    3.5504757 
C    -1.0477288   -0.7966828    4.3819745 
C    -0.3014420    0.1728709    3.6428094 
C     1.8670166   -3.2577336    3.8461710 
C     2.6558299   -2.1635369    3.3620748 
C     2.6706903   -1.1403659    4.3745737 
C     1.8938134   -1.6101861    5.4838748 
C     1.3920703   -2.9147904    5.1569508 
C    -0.8688801    1.8296649    0.6145055 
C    -1.6413219    2.4163822    1.6363294 
C    -2.7143590    3.2704414    1.3356133 
C    -3.0120979    3.5329465   -0.0239947 
C    -2.2461372    2.9750077   -1.0722457 
C    -1.1847275    2.1249743   -0.7248771 
C     1.8920665    1.6469605    1.6057886 
C     3.1151437    0.9911809    1.8433840 
C     4.2137523    1.6761366    2.3771552 
C     4.0702909    3.0578884    2.6470076 
C     2.8718453    3.7525554    2.3720883 
C     1.7854001    3.0247670    1.8519445 
C    -0.4238710   -2.7699955    1.1863589 
H    -1.7183898   -2.8698257    3.8613083 
H    -1.3836718   -0.7001430    5.4159854 
H     0.0314620    1.1488574    4.0014831 
H     1.6536626   -4.1840313    3.3086025 
H     3.1547179   -2.1217365    2.3921232 
H     3.1681216   -0.1726715    4.3052614 
H     1.6904179   -1.0583023    6.4033883 
H     0.7422518   -3.5278186    5.7843583 
H    -1.4244313    2.2036302    2.6863966 
H    -0.5929425    1.6590864   -1.5227622 
H     3.2151849   -0.0697609    1.5923593 
H     0.8574972    3.5548099    1.6138358 
H     0.6543995   -3.0047562    1.1249842 
H    -0.2877722   -3.0852177   -2.6723305 
H    -3.0628682   -2.7993693   -0.6724547 
C    -4.3239024   -0.8578785   -2.3109838 
C    -2.8346586   -1.1734193   -2.0990486 
C    -2.5712685   -1.8078222   -0.7165684 
C    -3.1398912   -0.9354947    0.4224757 
C    -4.6309394   -0.6278370    0.1914242 
C    -4.8665497    0.0272595   -1.1783194 
H    -4.8988594   -1.8038550   -2.3501893 
H    -4.4572916   -0.3671371   -3.2925248 
H    -2.2491858   -0.2364827   -2.1612549 
H    -2.4627980   -1.8263262   -2.9080963 
H    -3.0068708   -1.4358934    1.3961678 
H    -2.5789959    0.0136957    0.4745877 
H    -5.2157745   -1.5667847    0.2551578 
H    -4.9954970    0.0283494    1.0025350 
H    -4.3439747    1.0027471   -1.1992249 
H    -5.9415452    0.2344050   -1.3285126 
C    -1.0776951   -5.6687862   -2.9931358 
C    -1.5114716   -4.6583703   -1.9124317 
C    -0.4031426   -3.6024434   -1.7025059 
C     0.9603945   -4.2511842   -1.3674440 
C     1.3663824   -5.2849468   -2.4336865 
C     0.2630870   -6.3344538   -2.6440316 
H    -0.9860435   -5.1395320   -3.9615342 
H    -1.8667831   -6.4311730   -3.1216041 
H    -1.7272525   -5.1993911   -0.9740934 
H    -2.4515037   -4.1707764   -2.2239072 
H     1.7367199   -3.4666151   -1.2726932 
H     0.9032601   -4.7610765   -0.3867214 
H     1.5628742   -4.7639219   -3.3902149 
H     2.3142207   -5.7696660   -2.1384987 
H     0.1451214   -6.9303695   -1.7171158 
H     0.5577135   -7.0435887   -3.4379746 
C    -1.1809864   -4.0632153    1.5340855 
H    -0.8564693   -4.4302263    2.5228367 
H    -2.2717847   -3.9020653    1.5682846 
H    -0.9716888   -4.8594082    0.8058808 
C    -3.5433770    3.9182289    2.4190516 
H    -3.6076022    5.0082232    2.2601365 
H    -4.5801722    3.5352553    2.4113786 
H    -3.1167399    3.7243373    3.4161298 
C    -2.5572183    3.2811980   -2.5186753 
H    -3.2611044    2.5395055   -2.9427892 
H    -3.0196955    4.2765064   -2.6162275 
H    -1.6417363    3.2536661   -3.1338614 
O    -4.0287331    4.4179195   -0.3017228 
C    -5.2975883    3.8476427   -0.6515490 
H    -6.0004627    4.6893438   -0.7386643 
H    -5.2503846    3.3088989   -1.6164232 
H    -5.6506766    3.1496659    0.1310740 
C     5.5449725    1.0005541    2.6032998 
H     5.8595549    1.0685134    3.6598233 
H     5.5019332   -0.0655698    2.3268728 
H     6.3362767    1.4909639    2.0087316 
C     2.7786327    5.2459872    2.5750542 
H     3.7638730    5.7171162    2.4255885 
H     2.0597647    5.6906408    1.8675292 
H     2.4382929    5.4974604    3.5972887 
O     5.1900858    3.7440496    3.0667029 
C     5.2639660    4.0453792    4.4670907 
H     6.2244654    4.5587221    4.6229131 
H     4.4383092    4.7084562    4.7864676 
H     5.2373134    3.1202979    5.0744011 
