112
Energy =
C     2.6562523    1.4881567   -1.7222393 
C     1.6560304    1.3914540   -2.7101967 
C     0.4380495    2.1320462   -2.6507174 
H     1.7604769    0.6262480   -3.4903086 
Pd    0.6006479    0.7775578   -0.8688908 
P    -1.6345932    0.6496084   -0.1370138 
P     1.3082720   -0.6639341    0.8337085 
H     2.6148858    2.3537879   -1.0432408 
H     0.4666678    3.1127381   -2.1538668 
C     6.4670530   -0.5067046   -1.8629307 
C     6.0280804    0.1074292   -0.6799181 
C     4.7900870    0.7555806   -0.6434554 
C     3.9520853    0.7898414   -1.7821507 
C     4.4121633    0.1710262   -2.9686852 
C     5.6572233   -0.4646955   -3.0085293 
H     7.4395361   -1.0084388   -1.8945231 
H     6.6526589    0.0796963    0.2184341 
H     4.4572182    1.2260630    0.2866030 
H     3.8065729    0.2114681   -3.8796535 
H     6.0015627   -0.9237846   -3.9410349 
C    -2.5618904    1.7128139   -5.7185858 
C    -1.8514347    0.5844739   -5.2743433 
C    -0.8786596    0.7134774   -4.2777509 
C    -0.5942837    1.9735235   -3.6984465 
C    -1.3111316    3.0983730   -4.1605944 
C    -2.2838903    2.9694251   -5.1614344 
H    -3.3250889    1.6115249   -6.4968808 
H    -2.0626663   -0.4005724   -5.7036376 
H    -0.3513231   -0.1768702   -3.9175377 
H    -1.0969880    4.0840613   -3.7336006 
H    -2.8254583    3.8555001   -5.5086739 
Fe   -0.3400491   -3.8133699    0.7491611 
C     0.0727140   -1.9009064    1.3387436 
C    -1.3137211   -1.9964144    0.8985479 
C    -1.9473369   -2.9972440    1.7155039 
C    -0.9942224   -3.5183173    2.6482263 
C     0.2582352   -2.8664415    2.4079906 
C    -0.8489018   -5.7357308    0.2651462 
C    -0.8496313   -4.9216993   -0.9138440 
C     0.4587735   -4.3544905   -1.0631851 
C     1.2755757   -4.8297692    0.0197533 
C     0.4664690   -5.6845643    0.8370261 
C     1.7685684    0.2787868    2.3588352 
C     1.5666856   -0.1824887    3.6751869 
C     1.9790178    0.5911899    4.7706371 
C     2.5941443    1.8352160    4.5704720 
C     2.7874469    2.3110015    3.2648360 
C     2.3734178    1.5403149    2.1711531 
C     2.7997617   -1.6714092    0.4687297 
C     3.0172373   -2.0774696   -0.8619171 
C     4.0951323   -2.9127254   -1.1768671 
C     4.9686050   -3.3416210   -0.1649896 
C     4.7673216   -2.9238420    1.1592373 
C     3.6906977   -2.0832265    1.4779891 
C    -2.0651047   -1.1807962   -0.1404072 
H    -2.9886863   -3.3129147    1.6207747 
H    -1.1745708   -4.3111193    3.3765342 
H     1.2001464   -3.0810181    2.9160694 
H    -1.7038064   -6.2819277    0.6681088 
H    -1.7006912   -4.7713208   -1.5789975 
H     0.7827862   -3.6880277   -1.8627645 
H     2.3193385   -4.5712908    0.2013014 
H     0.7847648   -6.1802807    1.7561927 
H     1.0694282   -1.1378552    3.8563381 
H     2.4992674    1.9299738    1.1563788 
H     2.3400169   -1.7275631   -1.6492963 
H     3.5497739   -1.7456787    2.5101627 
H     1.8097900    0.2192938    5.7863562 
H     3.2523094    3.2877568    3.0961499 
H     4.2612324   -3.2196044   -2.2137847 
H     5.4548623   -3.2472678    1.9477296 
H     2.9108719    2.4370050    5.4283009 
H     5.8137431   -3.9922870   -0.4117258 
H    -3.1355618   -1.2450350    0.1246917 
C    -1.8776316   -1.7061376   -1.5797328 
H    -2.4130530   -1.0937750   -2.3240621 
H    -0.8057136   -1.7160027   -1.8404177 
H    -2.2575604   -2.7360622   -1.6414208 
H    -2.4635500    1.1055617   -2.2863302 
H    -3.0462583    1.7299351    1.4589349 
C    -3.8910870    3.5967917   -0.2855985 
C    -2.9383861    2.9508827   -1.3102424 
C    -2.9038128    1.3982048   -1.3175175 
C    -4.3449060    0.8268258   -1.2758503 
C    -5.2448649    1.4458373   -0.1942917 
C    -5.2972755    2.9760867   -0.3361311 
H    -3.9472074    4.6801384   -0.4949949 
H    -3.4892092    3.5113925    0.7391445 
H    -1.9157029    3.3579041   -1.2087409 
H    -3.2789280    3.2453237   -2.3196278 
H    -4.7885383    1.0532330   -2.2654004 
H    -4.3424366   -0.2741185   -1.2008382 
H    -6.2604954    1.0198672   -0.2792685 
H    -4.8811156    1.1691846    0.8149514 
H    -5.9362841    3.4165225    0.4496405 
H    -5.7715028    3.2256909   -1.3057275 
C    -1.4758667    3.3560708    3.0826671 
C    -1.1013238    2.6227447    1.7836920 
C    -2.0023338    1.3860074    1.5554149 
C    -1.9589211    0.4309368    2.7642663 
C    -2.3390747    1.1825426    4.0545556 
C    -1.4376443    2.4052860    4.2884854 
H    -2.4930986    3.7839696    2.9802877 
H    -0.7890709    4.2077504    3.2364721 
H    -0.0511876    2.2844784    1.8416068 
H    -1.1620561    3.3124231    0.9229127 
H    -2.6451115   -0.4185432    2.6094083 
H    -0.9477855    0.0072054    2.8777395 
H    -3.3952697    1.5111492    3.9869220 
H    -2.2794925    0.4868610    4.9110473 
H    -0.3962670    2.0650371    4.4466838 
H    -1.7439431    2.9370978    5.2069698 
