132
Energy =
C     1.8615718   -2.5978145   -0.2113059 
C     1.7380292   -2.7389095    1.1971592 
C     0.5071291   -3.1502302    1.7775541 
H     2.5545151   -2.3803384    1.8373147 
Pd    0.2556890   -1.2473968    0.5828113 
P    -1.5929455   -0.3025325    1.6765170 
P     0.3049718    0.2900745   -1.1708911 
H     1.2088734   -3.2222355   -0.8404469 
H    -0.1703517   -3.7314818    1.1338858 
C     5.4255854   -1.2046206   -2.1836425 
C     4.9847488   -0.5696772   -1.0104976 
C     3.8303306   -1.0172411   -0.3600093 
C     3.0819017   -2.0978188   -0.8784422 
C     3.5226273   -2.7123498   -2.0694700 
C     4.6932282   -2.2807657   -2.7050527 
H     6.3325917   -0.8589699   -2.6902904 
H     5.5409771    0.2814913   -0.6034451 
H     3.4824186   -0.5035991    0.5425673 
H     2.9410854   -3.5367237   -2.4966778 
H     5.0313215   -2.7820352   -3.6178952 
C    -0.3946513   -3.5530759    5.9693270 
C    -1.2822704   -4.0283608    4.9916076 
C    -0.9641354   -3.9022877    3.6341791 
C     0.2409799   -3.2865334    3.2193155 
C     1.1250273   -2.8134580    4.2177058 
C     0.8120676   -2.9519474    5.5743119 
H    -0.6367887   -3.6560331    7.0318049 
H    -2.2210438   -4.5075260    5.2882575 
H    -1.6542324   -4.2891556    2.8753092 
H     2.0638297   -2.3268970    3.9345380 
H     1.5135289   -2.5859920    6.3312588 
Fe   -2.2639373    2.7068836   -1.9254026 
C    -1.3779212    0.9203258   -1.4988365 
C    -2.3106446    1.3070641   -0.4501584 
C    -3.6073876    1.4556634   -1.0612612 
C    -3.4866504    1.1721973   -2.4626251 
C    -2.1175636    0.8537698   -2.7409045 
C    -2.3645221    4.5924558   -1.1176994 
C    -1.0410972    4.3191014   -1.5941518 
C    -1.1311630    4.0266146   -2.9992881 
C    -2.5098335    4.1151532   -3.3841863 
C    -3.2736914    4.4602802   -2.2197576 
C     0.8018004   -0.4933062   -2.7480863 
C     1.9519531   -0.1404518   -3.4740403 
C     2.2900353   -0.8122590   -4.6613634 
C     1.4717544   -1.8802929   -5.0868452 
C     0.3174631   -2.2725829   -4.3661133 
C     0.0021728   -1.5659666   -3.1960424 
C     1.4149941    1.7008287   -0.8316349 
C     1.7686322    2.6413347   -1.8175577 
C     2.6030289    3.7279433   -1.5146900 
C     3.0738508    3.8623299   -0.1848123 
C     2.7098682    2.9519376    0.8339975 
C     1.8846096    1.8709120    0.4829330 
C    -1.9680077    1.4329364    1.0131187 
H    -4.5203015    1.7763638   -0.5570758 
H    -4.2895253    1.2373261   -3.1993574 
H    -1.6957083    0.6038158   -3.7151318 
H    -2.6341213    4.8553737   -0.0936287 
H    -0.1305319    4.3249014   -0.9942103 
H    -0.3046726    3.7772725   -3.6654522 
H    -2.9109243    3.9247976   -4.3813360 
H    -4.3580294    4.5786182   -2.1753883 
H     2.6172094    0.6481850   -3.1125156 
H    -0.8939644   -1.8503636   -2.6299163 
H     1.3748908    2.5413850   -2.8329306 
H     1.5923057    1.1427227    1.2501528 
H    -0.9757881    1.9178757    1.0832490 
H    -0.8708398   -1.1710648    3.7395128 
H    -2.8506972   -2.2317091    2.1635867 
C    -4.0265465   -3.2182791   -0.1448533 
C    -2.9691327   -2.1112159    0.0049642 
C    -3.0497251   -1.4471110    1.4032344 
C    -4.4696491   -0.8866676    1.6416090 
C    -5.5226006   -2.0030437    1.5010629 
C    -5.4421889   -2.6830962    0.1250860 
H    -3.7995678   -4.0345362    0.5700959 
H    -3.9641486   -3.6576635   -1.1570179 
H    -3.1230312   -1.3388234   -0.7720788 
H    -1.9527774   -2.5212684   -0.1562649 
H    -4.5513580   -0.4118702    2.6324441 
H    -4.6731298   -0.1066038    0.8865514 
H    -5.3600880   -2.7567716    2.2970355 
H    -6.5305790   -1.5821450    1.6664927 
H    -5.7067151   -1.9470623   -0.6596055 
H    -6.1819342   -3.5004507    0.0559912 
C    -2.0734381    0.0179862    5.9236739 
C    -2.5173774    0.0016852    4.4475810 
C    -1.2965224   -0.1742530    3.5179652 
C    -0.1814649    0.8615938    3.7935963 
C     0.2161924    0.8802798    5.2800430 
C    -1.0071020    1.0931717    6.1857086 
H    -1.6617164   -0.9762349    6.1830600 
H    -2.9551090    0.1795239    6.5694849 
H    -3.0535841    0.9391867    4.2182083 
H    -3.2286314   -0.8272035    4.2892245 
H     0.6987643    0.6208405    3.1677823 
H    -0.5175331    1.8738110    3.4968254 
H     0.6928105   -0.0849530    5.5345662 
H     0.9722941    1.6684319    5.4505096 
H    -1.4386825    2.0959039    5.9937156 
H    -0.7025527    1.0795308    7.2474253 
C    -2.9758194    2.2783268    1.8088457 
H    -3.1235078    3.2355546    1.2820938 
H    -3.9567173    1.7900373    1.9040902 
H    -2.6021837    2.5002530    2.8200175 
C     3.4905330   -0.4083343   -5.4827228 
H     3.9961414    0.4651486   -5.0409486 
H     4.2276004   -1.2274349   -5.5514395 
H     3.1889265   -0.1654988   -6.5165201 
C    -0.5545646   -3.4012690   -4.8651085 
H    -0.5678617   -3.4203905   -5.9672663 
H    -0.1780055   -4.3840235   -4.5235220 
H    -1.5875108   -3.2972536   -4.4942210 
O     1.7833553   -2.5093421   -6.2734137 
C     2.5388767   -3.7213960   -6.1565651 
H     2.7260275   -4.0719819   -7.1823755 
H     3.5053641   -3.5428406   -5.6470084 
H     1.9808792   -4.4984898   -5.6004153 
C     2.9741414    4.7575546   -2.5554915 
H     2.3086116    4.6946846   -3.4314259 
H     2.9183770    5.7738225   -2.1315603 
H     4.0112522    4.6122473   -2.9110150 
C     3.1904043    3.1506059    2.2527338 
H     2.5049320    2.6739745    2.9730195 
H     4.1918379    2.7050045    2.4038080 
H     3.2711617    4.2245738    2.4868367 
O     3.8390766    4.9606910    0.1348103 
C     5.2605173    4.7777498    0.0650076 
H     5.7106333    5.7456365    0.3306479 
H     5.6026704    4.0045819    0.7789822 
H     5.5780207    4.4911839   -0.9554989 
