112
Energy =
C     1.2552018    0.4685374   -2.7071087 
C     1.1862278    1.8183905   -2.2805618 
C     1.9974630    2.2995307   -1.2181438 
H     0.4253247    2.4869939   -2.7036885 
Pd    0.6177064    0.6255169   -0.5181014 
P     0.9514649    0.9070810    1.8009034 
P    -0.6433625   -1.3194508   -0.2347642 
H     2.1577716   -0.0893079   -2.4147386 
H     2.9530184    1.7830661   -1.0429380 
C    -0.5607562   -1.1865938   -6.2413187 
C     0.3628868   -1.9302043   -5.4913767 
C     0.9223692   -1.3851441   -4.3296076 
C     0.5668500   -0.0894380   -3.8842774 
C    -0.3786118    0.6397912   -4.6437685 
C    -0.9276875    0.0999520   -5.8112220 
H    -0.9916222   -1.6039602   -7.1568891 
H     0.6589012   -2.9317930   -5.8198373 
H     1.6605136   -1.9618955   -3.7607531 
H    -0.6756709    1.6467181   -4.3338162 
H    -1.6477414    0.6860158   -6.3912545 
C     1.9037390    6.4249921   -0.0032563 
C     0.6997892    5.7381671   -0.2309573 
C     0.7198493    4.3938756   -0.6153455 
C     1.9432108    3.7035157   -0.7654491 
C     3.1461445    4.4015960   -0.5181315 
C     3.1262671    5.7536692   -0.1541648 
H     1.8873887    7.4785466    0.2938102 
H    -0.2584317    6.2524409   -0.1044363 
H    -0.2224635    3.8633593   -0.7882837 
H     4.1036660    3.8803795   -0.6306786 
H     4.0688654    6.2841632    0.0171154 
Fe   -2.9619823    0.6977918    1.2953090 
C    -1.8597565   -1.0102306    1.0803730 
C    -1.5574763   -0.3440164    2.3437974 
C    -2.7902183   -0.2549464    3.0855826 
C    -3.8419639   -0.8360815    2.3108916 
C    -3.2800254   -1.2969806    1.0783624 
C    -4.5115157    2.0117177    1.1466043 
C    -3.3774954    2.6429420    1.7609295 
C    -2.2830980    2.5834372    0.8333758 
C    -2.7401303    1.9155648   -0.3480741 
C    -4.1170375    1.5604492   -0.1580029 
C    -0.2268016   -0.0071108    2.9765099 
H    -2.8921756    0.1940802    4.0759281 
H    -4.8950247   -0.8923105    2.5916557 
H    -3.8391389   -1.7716309    0.2727672 
H    -5.4960541    1.8812118    1.5994573 
H    -3.3581956    3.0870859    2.7578681 
H    -1.2832235    2.9864367    0.9872804 
H    -2.1324192    1.7086106   -1.2295335 
H    -4.7530836    1.0332025   -0.8710857 
H    -0.4361642    0.7373835    3.7616629 
C     0.3966467   -1.2288534    3.6913035 
H    -0.3930597   -1.7414225    4.2666373 
H     0.8345179   -1.9539452    2.9902084 
H     1.1891191   -0.9190089    4.3894127 
H     1.1238849   -2.1585018    1.0865507 
C     2.4292029   -4.2054261   -0.1524886 
C     1.3771404   -3.2441162   -0.7369944 
C     0.4635349   -2.7027487    0.3837225 
C    -0.2125020   -3.8351536    1.1859704 
C     0.8587697   -4.7821156    1.7600968 
C     1.7690358   -5.3384668    0.6516633 
H     3.1070614   -3.6332806    0.5109332 
H     3.0514090   -4.6186134   -0.9667383 
H     0.7717211   -3.7779022   -1.4940686 
H     1.8698431   -2.4029139   -1.2608021 
H    -0.8320733   -3.4093014    1.9947899 
H    -0.8941443   -4.4108689    0.5377374 
H     1.4759092   -4.2317180    2.4981176 
H     0.3699510   -5.6061672    2.3096023 
H     1.1663542   -5.9679397   -0.0326296 
H     2.5424256   -5.9967908    1.0856879 
H    -0.7302256   -2.0494489   -2.4807949 
C    -3.2700672   -1.3781980   -3.5416204 
C    -2.5348565   -0.9027197   -2.2782984 
C    -1.5489471   -1.9625449   -1.7397772 
C    -2.1966305   -3.3604673   -1.5951849 
C    -2.9174173   -3.7812013   -2.8899851 
C    -3.9531513   -2.7354638   -3.3253681 
H    -2.5439514   -1.4678988   -4.3689967 
H    -4.0039083   -0.6096790   -3.8456219 
H    -3.2690659   -0.6517777   -1.4948527 
H    -1.9754560    0.0237054   -2.4956000 
H    -1.4246362   -4.1081642   -1.3517449 
H    -2.9164424   -3.3688968   -0.7572093 
H    -2.1684366   -3.9077985   -3.6964993 
H    -3.3911866   -4.7674154   -2.7372453 
H    -4.7363871   -2.6434971   -2.5459397 
H    -4.4636835   -3.0604041   -4.2493303 
C     5.1781312   -0.8394629    2.7162977 
C     4.5173382   -0.0700121    3.6881431 
C     3.2539012    0.4715358    3.4206651 
C     2.6327967    0.2448711    2.1728627 
C     3.3094192   -0.5181149    1.2008729 
C     4.5747485   -1.0601783    1.4703716 
H     6.1664656   -1.2594267    2.9296757 
H     4.9906640    0.1119034    4.6585411 
H     2.7539484    1.0834148    4.1793268 
H     2.8373696   -0.6777217    0.2230198 
H     5.0893724   -1.6488799    0.7039535 
C     1.1322532    5.2103249    3.5871461 
C    -0.0426363    4.4556880    3.7141462 
C    -0.1041744    3.1556296    3.1953504 
C     1.0102218    2.5934681    2.5364651 
C     2.1869272    3.3621606    2.4112480 
C     2.2466066    4.6569030    2.9405295 
H     1.1812619    6.2247253    3.9957092 
H    -0.9157684    4.8755953    4.2243685 
H    -1.0289615    2.5812231    3.3033760 
H     3.0658270    2.9416509    1.9151989 
H     3.1686989    5.2367102    2.8394700 
