118
Energy =
C    -0.6290021   -0.2658534   -3.0550428 
C    -0.3208155    1.1137908   -2.8856983 
C     0.9954331    1.5709676   -2.6682182 
H    -1.1430594    1.8391833   -2.8449795 
Pd    0.2752297    0.1150215   -1.0093886 
P     1.0192799    1.2440742    0.9392021 
P    -0.3259958   -1.9791925   -0.0478180 
H     0.1575181   -0.9014504   -3.4846066 
H     1.8174605    0.8884299   -2.9333920 
C    -4.6748386   -1.5489236   -3.8258248 
C    -4.4363047   -0.4036638   -3.0482061 
C    -3.1266979    0.0017683   -2.7718592 
C    -2.0192326   -0.7147227   -3.2847567 
C    -2.2771214   -1.8547904   -4.0800940 
C    -3.5885463   -2.2720388   -4.3403602 
H    -5.7004312   -1.8697366   -4.0342721 
H    -5.2772455    0.1721583   -2.6483286 
H    -2.9614698    0.8815213   -2.1403011 
H    -1.4398189   -2.4077192   -4.5175025 
H    -3.7625443   -3.1567679   -4.9615641 
C     2.1302269    5.7205712   -2.6832674 
C     0.8343042    5.3590621   -2.2763365 
C     0.4539724    4.0142888   -2.2477006 
C     1.3666621    2.9948918   -2.6125054 
C     2.6693286    3.3741160   -3.0075472 
C     3.0435634    4.7230294   -3.0539769 
H     2.4235712    6.7747734   -2.7122577 
H     0.1158044    6.1322242   -1.9851230 
H    -0.5590316    3.7530190   -1.9270595 
H     3.3894147    2.6005618   -3.2969293 
H     4.0534910    4.9950291   -3.3769329 
Fe    1.5357249   -1.5412840    2.8179806 
C     2.0240415    0.2501546    2.0794789 
C     2.9183575   -0.7673794    1.5645102 
H     3.0414072   -1.0063868    0.5074931 
C     3.5789587   -1.3944493    2.6675359 
H     4.2861609   -2.2232175    2.6038541 
C     3.1214102   -0.7666752    3.8717167 
H     3.4154536   -1.0356440    4.8879363 
C     2.1788074    0.2544149    3.5216424 
C     0.0584253   -2.3485408    1.7089561 
C    -0.4787388   -1.6642455    2.8700989 
H    -1.1751543   -0.8279573    2.8610538 
C     0.0677555   -2.2649341    4.0504490 
H    -0.1315921   -1.9477522    5.0754629 
C     0.9421094   -3.3233275    3.6472966 
H     1.5332856   -3.9584695    4.3092071 
C     0.9404976   -3.3847288    2.2162004 
H     1.6603557    0.8998859    4.2294561 
H     1.5249685   -4.0884300    1.6234873 
H    -2.3631567   -2.3522007   -1.2463154 
H     0.3608587   -4.2804865   -0.2479486 
H     1.5640908    3.3805378   -0.0431319 
H    -1.1985101    0.7316652    1.5339621 
C    -4.5089035   -1.5477898    0.3652281 
C    -3.0040715   -1.2523563    0.4904235 
C    -2.1555127   -2.3676683   -0.1586263 
C    -2.5178439   -3.7552481    0.4124017 
C    -4.0275885   -4.0292233    0.2736964 
C    -4.8613802   -2.9266054    0.9451070 
H    -4.7909563   -1.5197966   -0.7030712 
H    -5.0843379   -0.7508946    0.8711691 
H    -2.7518581   -1.1730819    1.5634961 
H    -2.7557555   -0.2807296    0.0255341 
H    -1.9451760   -4.5495907   -0.0986886 
H    -2.2327486   -3.7924439    1.4813216 
H    -4.2884970   -4.0833084   -0.8015747 
H    -4.2643202   -5.0163124    0.7095756 
H    -4.6642384   -2.9317079    2.0355694 
H    -5.9396376   -3.1295022    0.8176704 
C     2.7698304   -4.3805406   -1.6574576 
C     2.0560603   -3.1701117   -1.0287870 
C     0.5346379   -3.4124156   -0.9122136 
C    -0.0543328   -3.7500961   -2.2941911 
C     0.6490594   -4.9753104   -2.9067195 
C     2.1651606   -4.7516355   -3.0203842 
H     2.6820605   -5.2449333   -0.9697425 
H     3.8489615   -4.1645443   -1.7550827 
H     2.2198878   -2.2680154   -1.6534608 
H     2.4865568   -2.9509393   -0.0380827 
H    -1.1411470   -3.9280997   -2.2353736 
H     0.0930383   -2.8842466   -2.9611803 
H     0.4508230   -5.8624459   -2.2738873 
H     0.2129260   -5.1920522   -3.8985568 
H     2.3588306   -3.9313988   -3.7403548 
H     2.6587234   -5.6515937   -3.4278139 
C     4.3769142    3.6483696    0.1447413 
C     3.4724261    2.4139235    0.3074394 
C     2.0466303    2.8019607    0.7663748 
C     2.0882661    3.6723568    2.0415550 
C     2.9995690    4.9000371    1.8484840 
C     4.4183251    4.4879188    1.4302176 
H     3.9953209    4.2722797   -0.6829944 
H     5.3928495    3.3212574   -0.1418035 
H     3.9236738    1.7424203    1.0618811 
H     3.4192750    1.8427667   -0.6385520 
H     1.0721520    4.0091323    2.3078049 
H     2.4639993    3.0668254    2.8887835 
H     2.5623548    5.5530088    1.0674870 
H     3.0216879    5.4898762    2.7825704 
H     4.8849364    3.8992715    2.2448098 
H     5.0502158    5.3818642    1.2830334 
C    -2.8024260    2.9441809    1.2894917 
C    -1.3380532    2.7536311    0.8560943 
C    -0.6409370    1.6703146    1.7135175 
C    -0.7446936    1.9726175    3.2223145 
C    -2.2212000    2.1582434    3.6255688 
C    -2.9083205    3.2508744    2.7916637 
H    -3.3672782    2.0178362    1.0637002 
H    -3.2647283    3.7514691    0.6933126 
H    -0.7956543    3.7139658    0.9465556 
H    -1.2936575    2.4577748   -0.2091473 
H    -0.3082037    1.1420024    3.8000319 
H    -0.1752506    2.8830260    3.4772210 
H    -2.7588063    1.1986502    3.4823177 
H    -2.2821243    2.3946365    4.7028484 
H    -2.4267535    4.2264734    3.0006650 
H    -3.9673818    3.3515012    3.0883340 
