124
Energy =
C    -0.2648258    0.4945274   -2.9854108 
C     0.6194371   -0.6242194   -2.9636594 
C     0.1703704   -1.9023288   -2.5616554 
H     1.6902779   -0.4640726   -3.1408022 
Pd   -0.0749511   -0.3186140   -0.8838924 
P     0.4729752   -1.4762152    1.0459679 
P    -0.6910905    1.6351649    0.2095444 
H    -1.3278855    0.2756495   -3.1541508 
H    -0.9182892   -2.0706198   -2.5671012 
C     0.8822022    4.4919295   -4.0745311 
C    -0.4663032    4.1066508   -4.0872129 
C    -0.8285355    2.8080661   -3.7098851 
C     0.1508644    1.8675658   -3.3164593 
C     1.5034984    2.2826981   -3.2720354 
C     1.8628844    3.5775416   -3.6556437 
H     1.1686372    5.5039501   -4.3779107 
H    -1.2383948    4.8162921   -4.4024381 
H    -1.8819340    2.5084760   -3.7309905 
H     2.2821702    1.5931567   -2.9294543 
H     2.9143500    3.8790233   -3.6205751 
C     2.4337071   -5.5569651   -2.3895846 
C     3.1083964   -4.3335291   -2.5405220 
C     2.3891385   -3.1370550   -2.6222434 
C     0.9765132   -3.1316240   -2.5244500 
C     0.3124562   -4.3737246   -2.4011051 
C     1.0320266   -5.5728447   -2.3405539 
H     2.9965984   -6.4923085   -2.3145310 
H     4.2008952   -4.3082463   -2.5968630 
H     2.9379302   -2.2017753   -2.7724476 
H    -0.7816896   -4.3936128   -2.3547853 
H     0.4983474   -6.5229575   -2.2417808 
Fe   -2.1603422   -1.3267127    1.4900174 
C    -0.4730230   -1.0580113    2.5120201 
C    -1.2902661    0.1532779    2.5845088 
C    -2.2198742    0.0843326    3.7964449 
C    -2.2214909   -1.4168540    4.1917446 
C    -1.2930887   -2.0468000    3.1798878 
C    -3.7118364   -1.5511849    3.6734613 
C    -3.7064525   -0.0415359    3.2785601 
C    -3.7613081   -0.0774902    1.7561150 
C    -4.1483006   -1.3697974    1.2731968 
C    -3.7508441   -2.2619597    2.3305648 
C     2.2741282   -1.2150394    1.3345333 
C     2.7565922   -0.7145134    2.5550008 
C     4.0849047   -0.2701592    2.6457589 
C     4.9457158   -0.3438462    1.5401592 
C     4.4624160   -0.8646321    0.3313978 
C     3.1341251   -1.2919273    0.2267018 
C     0.1622475   -3.2665248    0.8684886 
C     1.0848739   -4.3005149    1.0593931 
C     0.6601096   -5.6322713    0.9131535 
C    -0.6749213   -5.9321683    0.6094557 
C    -1.5951643   -4.8896905    0.4128851 
C    -1.1756937   -3.5603196    0.5344773 
C    -0.8988090    1.5385703    2.0973613 
H    -2.0292226    0.8233040    4.5946197 
H    -2.0410392   -1.6745903    5.2491766 
H    -1.0289888   -3.1090944    3.2381816 
H    -4.4596139   -1.8837309    4.4145904 
H    -4.4529136    0.6122620    3.7630991 
H    -3.8614870    0.8411740    1.1694226 
H    -4.6271573   -1.6235892    0.3223953 
H    -3.8306740   -3.3531229    2.2669145 
H     2.0922776   -0.6421568    3.4225385 
H     2.7546751   -1.6652111   -0.7280499 
H     2.1298717   -4.0832390    1.2973192 
H    -1.8743462   -2.7448463    0.2069542 
H    -1.7673694    2.1954640    2.2807208 
C     0.2971710    2.0953660    2.8983315 
H     0.0805103    2.0114506    3.9773942 
H     1.2256155    1.5379759    2.6978254 
H     0.4800572    3.1554249    2.6597232 
C     4.5467058    0.4137185    3.9147685 
F     4.2032464    1.7337349    3.8789461 
F     3.9641181   -0.1164194    5.0113654 
F     5.8834026    0.3505078    4.0705797 
C     5.3202983   -0.9076674   -0.9131575 
F     5.5323179   -2.1756470   -1.3365638 
F     4.6887228   -0.2579139   -1.9406140 
F     6.5162630   -0.3175990   -0.7383829 
C     1.6535438   -6.7657106    1.0764657 
F     1.5779604   -7.3149570    2.3084406 
F     1.4167552   -7.7530617    0.1781233 
F     2.9243731   -6.3399498    0.8935924 
C    -3.0213748   -5.2110378    0.0241019 
F    -3.7861491   -5.4992715    1.1058951 
F    -3.6056626   -4.1603228   -0.6118623 
F    -3.0779825   -6.2738852   -0.8046997 
H     5.9728350    0.0209976    1.6147775 
H    -0.9874668   -6.9715111    0.4760765 
C    -4.8693441    3.1739016   -1.0530161 
C    -4.1130564    3.9486694   -0.1480423 
C    -2.8335288    3.4935991    0.2140640 
C    -2.3122354    2.3000205   -0.3302714 
C    -3.0954442    1.5469554   -1.2205007 
C    -4.3848584    1.9714555   -1.5951996 
H    -5.8742976    3.5146502   -1.3300273 
H    -2.2477556    4.0767505    0.9342004 
H    -2.7109834    0.5908340   -1.5917945 
C    -4.6699103    5.2394880    0.4092069 
H    -5.6969467    5.0990105    0.7886842 
H    -4.0471289    5.6300008    1.2304639 
H    -4.7175115    6.0145662   -0.3778551 
C    -5.2093306    1.1493920   -2.5607049 
H    -4.8756056    1.3187295   -3.6019025 
H    -5.1062120    0.0696040   -2.3552139 
H    -6.2782820    1.4114012   -2.5075626 
C     2.6808448    4.7247525   -0.4660298 
C     1.3600981    5.1309470   -0.7363997 
C     0.3182050    4.2057510   -0.5456471 
C     0.5962692    2.9042646   -0.0917311 
C     1.9319902    2.5105709    0.1327693 
C     2.9896608    3.4211946   -0.0377695 
H     3.4975693    5.4417407   -0.6126898 
H    -0.7071901    4.5015790   -0.7827772 
H     2.1560861    1.4817434    0.4403153 
C     1.0622693    6.5354158   -1.2101255 
H     0.9747150    7.2272874   -0.3512665 
H     1.8670925    6.9190200   -1.8594365 
H     0.1143867    6.5754866   -1.7719517 
C     4.4160927    2.9937640    0.2283284 
H     5.1266166    3.8146160    0.0410948 
H     4.5353176    2.6692943    1.2773431 
H     4.6996588    2.1424909   -0.4156898 
