122
Energy =
C    -0.7314790   -2.6668135    1.5535891 
C    -0.8183110   -1.8296818    2.7144792 
C    -1.7808050   -0.8037926    2.7780397 
H    -0.0581446   -1.9075721    3.5018358 
Pd   -0.3453686   -0.5673191    0.9578597 
P     0.5235078    1.6435149    1.1443077 
P     0.1423231   -0.9577717   -1.3007116 
H    -1.6749880   -2.9287910    1.0576173 
H    -2.5630965   -0.8018569    2.0017069 
C     2.5445535   -5.3468225    0.7568439 
C     2.7409733   -4.2283150    1.5848171 
C     1.6805813   -3.3592514    1.8587429 
C     0.3906373   -3.5978442    1.3226638 
C     0.2031212   -4.7450528    0.5178494 
C     1.2708479   -5.6037652    0.2279160 
H     3.3830284   -6.0092147    0.5221144 
H     3.7319751   -4.0241183    1.9999415 
H     1.8593884   -2.4765448    2.4820947 
H    -0.7938397   -4.9635002    0.1245770 
H     1.1088430   -6.4724138   -0.4174999 
C    -2.8037102    1.6814262    6.1133902 
C    -1.9263585    0.6005790    6.3012963 
C    -1.5475077   -0.1952670    5.2162068 
C    -2.0567651    0.0673283    3.9217676 
C    -2.9340675    1.1645821    3.7473622 
C    -3.2994902    1.9664562    4.8311510 
H    -3.1005088    2.3001819    6.9664101 
H    -1.5448687    0.3720690    7.3017088 
H    -0.8854150   -1.0508816    5.3832472 
H    -3.3195292    1.3806704    2.7462551 
H    -3.9735359    2.8151113    4.6795307 
Fe   -3.5949733    1.9685100   -1.8982029 
C    -1.9749667    0.8311510   -1.4865608 
C    -1.8361729    2.1350794   -0.8605035 
C    -2.9714543    2.3288828    0.0070382 
H    -3.1669836    3.2253754    0.5966411 
C    -3.7943693    1.1548794   -0.0504303 
H    -4.7439999    1.0098004    0.4685471 
C    -3.1849835    0.2308201   -0.9631384 
H    -3.6050576   -0.7309574   -1.2661631 
C    -4.2067392    1.6249688   -3.8182984 
H    -3.8960350    0.7928932   -4.4533233 
C    -3.5645160    2.9054924   -3.7262002 
H    -2.6883597    3.2228526   -4.2942491 
C    -4.2847699    3.6960679   -2.7675670 
H    -4.0488558    4.7174966   -2.4630561 
C    -5.3745755    2.9062789   -2.2729386 
H    -6.0986696    3.2145687   -1.5165734 
C    -5.3272968    1.6272898   -2.9217609 
H    -6.0077536    0.7923657   -2.7436025 
C    -0.6654043    3.0382244   -1.0263638 
C     0.5300368    2.8200400   -0.2874482 
C     1.6712082    3.5958094   -0.5771340 
H     2.6102821    3.4021027   -0.0548999 
C     1.6322252    4.6023628   -1.5496248 
H     2.5399083    5.1707736   -1.7735016 
C     0.4330753    4.8742854   -2.2207565 
H     0.3824328    5.6781894   -2.9621786 
C    -0.6986592    4.0925661   -1.9596035 
H    -1.6305466    4.2648151   -2.5007973 
C     1.9342737   -0.8029472   -1.6671038 
C     2.5206669    0.4336930   -1.9975607 
H     1.9069573    1.3159127   -2.1783941 
C     3.9149476    0.5575237   -2.0690313 
C     4.7457960   -0.5439933   -1.8330465 
H     5.8311436   -0.4484791   -1.9167006 
C     4.1654849   -1.7703436   -1.4818413 
C     2.7742864   -1.9007849   -1.3723435 
H     2.3580995   -2.8558959   -1.0367872 
C    -0.3521472   -2.6123899   -1.9593968 
C     0.4132832   -3.4465669   -2.7927857 
H     1.4232359   -3.1700281   -3.1041900 
C    -0.1167540   -4.6669476   -3.2401241 
C    -1.4233660   -5.0557944   -2.9097609 
H    -1.8306215   -6.0035069   -3.2708333 
C    -2.1960646   -4.2059234   -2.1088592 
C    -1.6597427   -3.0065539   -1.6288064 
H    -2.2682880   -2.3704025   -0.9796278 
C    -1.0115328    0.1269525   -2.4093663 
H    -1.5886481   -0.6640468   -2.9165088 
C    -0.3369628    0.9579641   -3.5088094 
H    -1.1248804    1.3430491   -4.1767738 
H     0.2143350    1.8250992   -3.1198389 
H     0.3507377    0.3368808   -4.1065550 
C     0.7660109   -5.6141349   -4.0279905 
F     0.0515650   -6.3542898   -4.9004818 
F     1.7192734   -4.9500524   -4.7190149 
F     1.4014335   -6.4750336   -3.1908176 
C    -3.5841838   -4.5863849   -1.6481836 
F    -4.4526350   -3.5530024   -1.8047554 
F    -4.0764172   -5.6508767   -2.3028142 
F    -3.5718597   -4.8827180   -0.3175233 
C     4.5334898    1.9138890   -2.3304573 
F     5.7292082    1.8129763   -2.9443574 
F     3.7326335    2.6930208   -3.0961424 
F     4.7380253    2.5818303   -1.1610863 
C     5.0576947   -2.9514981   -1.1623801 
F     5.3494059   -2.9983829    0.1707622 
F     4.4661668   -4.1248983   -1.4784277 
F     6.2322528   -2.8827319   -1.8191529 
C     5.0351570    1.0941157    2.2058695 
C     4.4063030    2.3251318    2.4523775 
C     3.0468995    2.4951145    2.1616353 
C     2.3025844    1.4332430    1.5995158 
C     2.9366740    0.1946271    1.3845202 
C     4.2957869    0.0240344    1.6832024 
H     6.0984497    0.9673698    2.4344261 
H     4.9764105    3.1575235    2.8776132 
H     2.5615984    3.4531386    2.3756319 
H     2.3574504   -0.6452428    0.9872828 
H     4.7711921   -0.9442221    1.5006460 
C    -0.7954548    4.3599318    4.6898554 
C    -1.1313887    4.7370234    3.3824686 
C    -0.7635333    3.9281488    2.2966364 
C    -0.0676775    2.7239013    2.5160940 
C     0.2461322    2.3374856    3.8374282 
C    -0.1024945    3.1599327    4.9136519 
H    -1.0686766    5.0010841    5.5341932 
H    -1.6634600    5.6765986    3.2000468 
H    -0.9889444    4.2576245    1.2781568 
H     0.7927498    1.4062808    4.0205104 
H     0.1619206    2.8586581    5.9316461 
