142
Energy =
C     3.3451024    0.7196069   -1.7909824 
C     3.4511634    1.4973952   -0.6221912 
C     3.6376427    0.8541147    0.6434551 
H     3.3054080    2.5830221   -0.6751846 
Pd    1.6455278    0.2882062   -0.1905568 
P     0.9641198   -1.0848784    1.5757894 
P    -0.2469874    0.2687714   -1.6036795 
H     3.6346559   -0.3389519   -1.7033818 
H     4.1784385   -0.1012252    0.6319288 
C     2.9925041    1.9963935   -5.8666090 
C     3.1929770    0.6432184   -5.5530642 
C     3.3067145    0.2487582   -4.2161936 
C     3.2084949    1.1944049   -3.1657685 
C     3.0212519    2.5561704   -3.5008817 
C     2.9185180    2.9488872   -4.8366351 
H     2.9086540    2.3115273   -6.9119024 
H     3.2715409   -0.1016497   -6.3514581 
H     3.4801297   -0.8049853   -3.9707796 
H     2.9610859    3.3131236   -2.7147120 
H     2.7820764    4.0058485   -5.0785669 
C     3.6798870    2.8296143    4.4646812 
C     3.1386219    3.4895426    3.3486059 
C     3.1214954    2.8643582    2.0984094 
C     3.6662024    1.5675834    1.9311462 
C     4.2341483    0.9301040    3.0586429 
C     4.2311186    1.5482197    4.3145887 
H     3.6694369    3.3149365    5.4454370 
H     2.7043750    4.4869408    3.4612124 
H     2.6612426    3.3824774    1.2497307 
H     4.6868110   -0.0596640    2.9403861 
H     4.6603725    1.0248921    5.1742022 
Fe   -2.8688995   -3.7559773    0.4014063 
C    -1.4634217   -2.3044858    0.6195332 
C    -1.9635017   -2.3217746   -0.7519099 
C    -3.3916381   -2.1288811   -0.6938265 
H    -4.0468683   -2.0946482   -1.5647921 
C    -3.7774296   -1.9596784    0.6711714 
H    -4.7926046   -1.8070256    1.0388272 
C    -2.6032606   -2.0748572    1.4812375 
H    -2.5970260   -2.0297035    2.5694807 
C    -2.1833462   -5.4653074    1.2955567 
H    -1.2736797   -5.5696481    1.8909896 
C    -2.2886817   -5.6569804   -0.1230397 
H    -1.4762297   -5.9523354   -0.7898740 
C    -3.6527975   -5.4173885   -0.5043902 
H    -4.0618380   -5.4764299   -1.5147599 
C    -4.3904629   -5.0863882    0.6814970 
H    -5.4512458   -4.8333650    0.7271592 
C    -3.4828989   -5.1155473    1.7937217 
H    -3.7336605   -4.8880841    2.8316168 
C    -1.2079685   -2.3967945   -2.0339973 
C    -0.4133625   -1.3180166   -2.5148972 
C     0.3574151   -1.4928591   -3.6848062 
H     1.0093820   -0.6835167   -4.0239022 
C     0.2930798   -2.6785004   -4.4255175 
H     0.8968699   -2.7873591   -5.3324790 
C    -0.5592897   -3.7090372   -4.0060000 
H    -0.6418642   -4.6326771   -4.5879697 
C    -1.2902803   -3.5625070   -2.8214260 
H    -1.9343710   -4.3694678   -2.4643331 
C    -0.1361186    1.6432720   -2.8299229 
C    -0.4914164    1.5692954   -4.1865469 
H    -0.7280648    0.6062102   -4.6491707 
C    -0.6000293    2.7316579   -4.9717027 
C    -0.3627252    3.9832524   -4.3597844 
C    -0.0025818    4.0889572   -2.9954700 
C     0.1128084    2.9059367   -2.2521987 
H     0.3616596    2.9710191   -1.1837958 
C    -1.9086975    0.6843289   -0.9330910 
C    -2.1006481    0.9953691    0.4179309 
H    -1.2589896    0.9392451    1.1119408 
C    -3.3664599    1.3713698    0.9068691 
C    -4.4384837    1.4296643   -0.0080833 
C    -4.2639661    1.1557586   -1.3881041 
C    -2.9887422    0.7896934   -1.8337737 
H    -2.8375604    0.5815539   -2.8990157 
C     2.4372777   -1.8605244    2.3828735 
C     3.4542189   -2.3526758    1.5463757 
H     3.3437297   -2.2981891    0.4584795 
C     4.6306920   -2.8877577    2.0867932 
C     4.8137354   -2.9460912    3.4741640 
H     5.7349778   -3.3577409    3.8942117 
C     3.8011178   -2.4543126    4.3117122 
C     2.6226220   -1.9138077    3.7771096 
H     1.8676169   -1.5198456    4.4613000 
C     0.1131399   -0.2975600    3.0033278 
C    -0.6436623   -1.0356821    3.9275408 
H    -0.7230346   -2.1237543    3.8520082 
C    -1.3239547   -0.3808973    4.9652011 
C    -1.2243660    1.0061817    5.1187198 
H    -1.7730276    1.5127324    5.9167768 
C    -0.4347171    1.7392337    4.2194092 
C     0.2252457    1.0968854    3.1643831 
H     0.8138805    1.6842205    2.4534195 
C    -0.0681132   -2.6187044    1.1113588 
H    -0.1729936   -3.1654608    2.0658170 
C     0.7484177   -3.4950060    0.1413845 
H     0.0834937   -4.2768744   -0.2565588 
H     1.1324622   -2.9155998   -0.7161227 
H     1.5941177   -3.9821090    0.6505740 
C    -2.2542551   -1.1952394    5.8363452 
F    -2.6241621   -0.5402380    6.9509602 
F    -3.3907561   -1.4984667    5.1411503 
F    -1.6932707   -2.3714507    6.1977779 
C    -0.3433775    3.2435652    4.3746696 
F    -0.0236612    3.8439382    3.2014246 
F    -1.5250599    3.7599534    4.7865363 
F     0.5904482    3.6035144    5.2849087 
C     5.7071078   -3.3348934    1.1229989 
F     6.1455890   -2.2747180    0.3864643 
F     5.2273662   -4.2461217    0.2426962 
F     6.7708897   -3.8710164    1.7466914 
C     4.0307129   -2.4226003    5.8086229 
F     4.8037113   -1.3569805    6.1521272 
F     2.8700706   -2.3128345    6.4929720 
F     4.6689852   -3.5307676    6.2371913 
C    -0.9908342    2.6561691   -6.4282055 
H    -1.6197663    3.5170745   -6.7076518 
H    -0.0949772    2.6755478   -7.0778745 
H    -1.5354362    1.7232757   -6.6469832 
C     0.2353866    5.4435039   -2.3721165 
H     0.1537962    5.3969692   -1.2738684 
H     1.2454578    5.8248080   -2.6174551 
H    -0.4893991    6.1795388   -2.7567808 
C    -3.5764860    1.6920897    2.3675916 
H    -2.7486099    2.3022610    2.7615312 
H    -4.5151800    2.2479670    2.5139778 
H    -3.6207091    0.7680394    2.9756022 
C    -5.4357424    1.2681415   -2.3338380 
H    -6.0153914    2.1831998   -2.1277122 
H    -5.0991707    1.2814729   -3.3829630 
H    -6.1300273    0.4150949   -2.2134211 
O    -0.5882152    5.1374195   -5.0795007 
O    -5.6864167    1.8309190    0.4217565 
C     0.5131601    5.6711545   -5.8198427 
H     0.1305791    6.5553072   -6.3510267 
H     1.3383676    5.9807152   -5.1494038 
H     0.8983487    4.9410459   -6.5570997 
C    -6.5252475    0.7942561    0.9429178 
H    -6.0894816    0.3428996    1.8554874 
H    -7.4862834    1.2670129    1.1946869 
H    -6.6937704   -0.0022936    0.1923703 
