98
Energy =
C    -0.7384069   -2.9160528    0.4097783 
C    -1.5492427   -2.2128467    1.3399108 
C    -2.6312259   -1.4103576    0.9073283 
H    -1.2746093   -2.2128441    2.4019330 
Pd   -0.6212511   -0.6742524    0.0604017 
P    -1.1029520    1.6343835    0.0559459 
P     1.4654530   -0.7029125   -1.0589517 
H    -1.2010659   -3.1698935   -0.5544844 
H    -3.0507267   -1.6255611   -0.0866705 
C     2.5633243   -5.4493944    1.5118410 
C     2.1652814   -4.4089255    2.3692283 
C     1.1014954   -3.5725511    2.0183285 
C     0.3976018   -3.7676990    0.8062970 
C     0.8042005   -4.8234714   -0.0418955 
C     1.8788007   -5.6528646    0.3045171 
H     3.4014570   -6.0977109    1.7864356 
H     2.6967530   -4.2434826    3.3118897 
H     0.8283181   -2.7454448    2.6820640 
H     0.2618838   -5.0019697   -0.9770557 
H     2.1757455   -6.4662458   -0.3654536 
C    -5.3226396    0.7362430    3.4929672 
C    -4.0143143    0.4605516    3.9260904 
C    -3.1313842   -0.2425303    3.1004513 
C    -3.5324833   -0.6816364    1.8175494 
C    -4.8579878   -0.4125884    1.4042043 
C    -5.7437709    0.2885391    2.2320576 
H    -6.0109181    1.2896540    4.1397446 
H    -3.6815236    0.7980887    4.9131314 
H    -2.1131358   -0.4390551    3.4507720 
H    -5.1958992   -0.7652233    0.4239611 
H    -6.7658944    0.4838257    1.8921306 
Fe    1.4567515    2.5993399   -1.9189069 
C     2.3229067    0.8805972   -1.3647795 
C     2.5382845    1.9031511   -0.3614518 
H     2.2183855    1.8487730    0.6789500 
C     3.2309614    2.9990120   -0.9713973 
H     3.5087522    3.9319080   -0.4779128 
C     3.4626561    2.6704328   -2.3461385 
H     3.9471070    3.3090117   -3.0868696 
C     2.9152583    1.3695124   -2.5957855 
C    -0.4554690    2.6088231   -1.3370355 
C    -0.3412430    2.1124270   -2.6930013 
H    -0.6361947    1.1186067   -3.0289881 
C     0.2610679    3.1333601   -3.4975091 
H     0.5089228    3.0487150   -4.5569830 
C     0.5176169    4.2682359   -2.6609443 
H     0.9947775    5.1996117   -2.9709197 
C     0.0745757    3.9589708   -1.3331834 
H     2.9313561    0.8552591   -3.5575248 
H     0.1520757    4.6237107   -0.4714345 
C    -0.4527981    2.5089383    1.6015740 
C    -1.6754541    3.2705778    2.1807032 
C    -2.6502087    3.5995300    1.0402212 
C    -2.8534516    2.3125363    0.2140876 
H     0.2953386    3.2300233    1.2251238 
H    -2.1870977    2.6179934    2.9125197 
H    -1.3533757    4.1781252    2.7198545 
H    -3.6185798    3.9660969    1.4258449 
H    -2.2386837    4.3966893    0.3920053 
H    -3.3988331    1.5797634    0.8339626 
C     1.4613381   -1.5047560   -2.7742111 
C     2.7803821   -2.3393393   -2.8302213 
C     3.7407866   -1.9408567   -1.6956844 
C     2.8912155   -1.7478850   -0.4237241 
H     1.4929654   -0.6630191   -3.4879034 
H     2.5119469   -3.4040372   -2.7006882 
H     3.2545345   -2.2463363   -3.8223666 
H     4.5062195   -2.7214642   -1.5417839 
H     4.2767504   -1.0032912   -1.9338288 
H     2.4368905   -2.7184683   -0.1541138 
C     3.6095615   -1.1712813    0.8064599 
H     3.9863682   -0.1582880    0.5737156 
H     2.8707285   -1.0561270    1.6231577 
C     4.7758861   -2.0464299    1.2884730 
H     4.4431983   -3.0808133    1.4821299 
H     5.5865176   -2.0847372    0.5404829 
H     5.2043610   -1.6433163    2.2221242 
C     0.2310908   -2.3718236   -3.1050132 
H     0.4517402   -2.8931141   -4.0562689 
H     0.1448652   -3.1688644   -2.3443751 
C    -1.0969344   -1.6246183   -3.2375740 
H    -1.9254500   -2.3199092   -3.4562126 
H    -1.3464087   -1.0915160   -2.2957345 
H    -1.0620707   -0.8778374   -4.0507165 
C     0.2387553    1.5654194    2.6051072 
H     1.0039735    0.9620753    2.0810399 
H    -0.5050289    0.8388135    2.9795631 
C     0.8834110    2.3091900    3.7823210 
H     1.3886544    1.6040819    4.4645670 
H     1.6374830    3.0349159    3.4266043 
H     0.1334473    2.8660806    4.3705634 
C    -3.5928955    2.5107680   -1.1174343 
H    -3.0352148    3.2381080   -1.7371212 
H    -4.5668059    2.9844742   -0.8890052 
C    -3.8270321    1.2197197   -1.9105519 
H    -4.4448797    0.5069648   -1.3388183 
H    -4.3429008    1.4268915   -2.8631639 
H    -2.8737378    0.7151230   -2.1483230 
