124
Energy =
C     1.3238344    1.0405694   -2.9726752 
C     2.4188411    0.3177959   -2.4282448 
C     2.3394487   -1.0840718   -2.1979149 
H     3.2824485    0.8761480   -2.0437971 
Pd    0.7258223    0.0292166   -1.0669616 
P     0.2704867   -1.4887876    0.6368522 
P    -0.9133657    1.5664372   -0.4466474 
H     0.6168705    0.4845390   -3.6084360 
H     1.6519529   -1.6599871   -2.8361757 
C     1.3225243    5.2917102   -3.6140757 
C     1.9400652    4.7624283   -2.4678509 
C     1.9440761    3.3819465   -2.2463393 
C     1.3193956    2.5041340   -3.1616910 
C     0.6772737    3.0504664   -4.2933449 
C     0.6929723    4.4312679   -4.5251499 
H     1.3267845    6.3723029   -3.7910211 
H     2.4175003    5.4292468   -1.7424385 
H     2.4101332    2.9819265   -1.3397874 
H     0.1649610    2.3847424   -4.9963011 
H     0.1996183    4.8377065   -5.4137913 
C     5.6292140   -3.3491888   -0.6093599 
C     4.6959725   -3.9514329   -1.4654273 
C     3.6024437   -3.2170002   -1.9409512 
C     3.4299912   -1.8604801   -1.5828299 
C     4.3550884   -1.2800359   -0.6823897 
C     5.4455182   -2.0146161   -0.2088788 
H     6.4824594   -3.9232260   -0.2364957 
H     4.8187139   -4.9975946   -1.7611686 
H     2.8856367   -3.6874001   -2.6237691 
H     4.2161381   -0.2485354   -0.3402838 
H     6.1488408   -1.5451099    0.4863088 
Fe   -2.3946353   -1.2462510    3.0212914 
C    -0.6899139   -0.7866106    2.0131847 
C    -1.6950424    0.2619347    1.8703676 
C    -1.9917168    0.7447256    3.1934845 
C    -1.2238373   -0.0038632    4.1425493 
C    -0.4313233   -0.9582133    3.4298306 
C    -4.3581961   -1.5690908    2.5204640 
C    -3.5375708   -2.6465140    2.0546814 
C    -2.8778431   -3.2278933    3.1931100 
C    -3.2923269   -2.5031616    4.3590887 
C    -4.2036903   -1.4755855    3.9438616 
C     1.7642239   -2.1623195    1.4535642 
C     2.2545505   -3.4655383    1.2511716 
C     3.4330131   -3.8755127    1.8902367 
C     4.1720017   -2.9821221    2.6774021 
C     3.7132401   -1.6669515    2.8260983 
C     2.5126260   -1.2593600    2.2330313 
C    -0.6968933   -2.8975764   -0.0339004 
C    -1.3732356   -2.6657276   -1.2413462 
C    -2.2465060   -3.6294913   -1.7651185 
C    -2.4148770   -4.8577720   -1.1143623 
C    -1.7132386   -5.1018016    0.0789828 
C    -0.8768498   -4.1231610    0.6328570 
C    -2.2930755    0.7608592    0.5798022 
H    -2.7192396    1.5183787    3.4407698 
H    -1.2680451    0.1042205    5.2276635 
H     0.2606579   -1.6783073    3.8685614 
H    -4.9848813   -0.9278708    1.8986696 
H    -3.4369957   -2.9648653    1.0159327 
H    -2.2031911   -4.0831986    3.1819074 
H    -2.9550913   -2.6859575    5.3809688 
H    -4.6769369   -0.7369107    4.5934423 
H     1.7348144   -4.1741244    0.6027995 
H     2.1635292   -0.2320202    2.3791686 
H    -1.2227118   -1.7150678   -1.7683614 
H    -0.3846717   -4.3173135    1.5894384 
H    -2.5879512   -0.1099253   -0.0358615 
C    -3.5096707    1.6746199    0.7775078 
H    -4.2835538    1.1380687    1.3515532 
H    -3.2430682    2.5828130    1.3415060 
H    -3.9374255    1.9774195   -0.1912267 
C     3.8831178   -5.3178838    1.7775261 
F     3.4258909   -6.0435364    2.8249146 
F     3.4160604   -5.9040301    0.6492203 
F     5.2316709   -5.4236833    1.7740942 
C     4.5539275   -0.6299914    3.5337528 
F     5.1748285    0.1743785    2.6203244 
F     3.7966587    0.1815675    4.3124097 
F     5.5111704   -1.1768818    4.3046555 
C    -3.0261586   -3.2721039   -3.0111803 
F    -3.7031276   -4.3148114   -3.5190571 
F    -3.9262773   -2.2841965   -2.7346946 
F    -2.2096633   -2.7819711   -3.9783846 
C    -1.8286280   -6.4476134    0.7677741 
F    -0.8108758   -7.2609441    0.4064244 
F    -1.7693718   -6.3115033    2.1183696 
F    -2.9843085   -7.0696844    0.4629114 
H     5.1043577   -3.3001595    3.1501135 
H    -3.0884473   -5.6148093   -1.5237141 
C    -3.1824020    3.2378834   -4.1016919 
C    -3.2048935    1.8558987   -3.8177527 
C    -2.5091550    1.4022755   -2.6860732 
C    -1.8031495    2.3049110   -1.8595473 
C    -1.7739652    3.6708803   -2.1806644 
C    -2.4795254    4.1543291   -3.3018580 
H    -3.7228851    3.6059945   -4.9823875 
H    -2.5231483    0.3304385   -2.4515895 
H    -1.1769282    4.3666785   -1.5840529 
C    -3.9629214    0.8955836   -4.7077261 
H    -3.6477991    1.0011257   -5.7610828 
H    -3.8075232   -0.1513003   -4.4027166 
H    -5.0479254    1.1034935   -4.6730364 
C    -2.4852299    5.6316929   -3.6242239 
H    -3.3869331    6.1165860   -3.2049475 
H    -1.6029262    6.1379378   -3.1995607 
H    -2.4961156    5.8062973   -4.7133088 
C     0.9675112    4.6303106    2.4526652 
C    -0.3071161    4.9280671    1.9298354 
C    -0.8922319    4.0233649    1.0253692 
C    -0.2074681    2.8515152    0.6432390 
C     1.0655855    2.5842843    1.1839726 
C     1.6698089    3.4635352    2.0998574 
H     1.4279830    5.3341109    3.1569665 
H    -1.8811728    4.2479987    0.6138751 
H     1.5932967    1.6722366    0.8722595 
C    -1.0240332    6.1967908    2.3359706 
H    -2.0026758    6.2878447    1.8373087 
H    -1.1914081    6.2233096    3.4278008 
H    -0.4239891    7.0881059    2.0787285 
C     3.0204741    3.1473401    2.7026276 
H     3.5934660    2.4439221    2.0761360 
H     3.6237853    4.0602776    2.8405839 
H     2.9046742    2.6760585    3.6958289 
