122
Energy =
C     0.6054661   -0.7933888   -3.5914137 
C     0.7457452    0.6029071   -3.4264888 
C     1.7766271    1.1556986   -2.6097877 
H    -0.0294920    1.2742733   -3.8181504 
Pd    0.4474034   -0.1181118   -1.3630099 
P     1.0319977    0.8290502    0.7049525 
P    -0.9641575   -1.8416488   -0.5460892 
H     1.4702729   -1.4204805   -3.3299736 
H     2.7131158    0.5836402   -2.5224319 
C    -2.3956606   -2.7960174   -5.9285677 
C    -1.5237736   -3.5256648   -5.1063968 
C    -0.5361809   -2.8653069   -4.3684434 
C    -0.4148794   -1.4568467   -4.4192690 
C    -1.2858486   -0.7355913   -5.2710387 
C    -2.2633463   -1.4001655   -6.0179846 
H    -3.1660918   -3.3126809   -6.5098884 
H    -1.6102952   -4.6150003   -5.0417114 
H     0.1405233   -3.4413058   -3.7303812 
H    -1.1930123    0.3514469   -5.3625223 
H    -2.9221499   -0.8282670   -6.6796628 
C     2.1790473    5.3890138   -1.9376786 
C     0.9074083    4.7924674   -1.8961835 
C     0.7690873    3.4178473   -2.1176894 
C     1.9012535    2.6107504   -2.3739370 
C     3.1729243    3.2201085   -2.4103512 
C     3.3073093    4.5995438   -2.2025156 
H     2.2915388    6.4611121   -1.7501119 
H     0.0226142    5.4032579   -1.6863484 
H    -0.2212430    2.9501147   -2.0669860 
H     4.0606249    2.6070131   -2.5976758 
H     4.3004176    5.0581761   -2.2271661 
Fe   -3.5106166    2.0975934    1.4483206 
C    -1.6469100    1.6374810    0.7467733 
C    -2.3940853    0.4254900    1.0454025 
C    -3.6076490    0.4673026    0.2642813 
H    -4.3910761   -0.2902231    0.2805492 
C    -3.6027670    1.6597696   -0.5287375 
H    -4.3970786    1.9802539   -1.2050294 
C    -2.4012426    2.3811330   -0.2323776 
H    -2.1172098    3.3543569   -0.6384765 
C    -3.6077424    3.8164820    2.5650135 
H    -2.8846309    4.6341731    2.5778604 
C    -3.6095776    2.6668297    3.4243911 
H    -2.8934174    2.4628921    4.2219277 
C    -4.7370295    1.8503808    3.0720218 
H    -5.0142822    0.8988327    3.5293787 
C    -5.4342663    2.4985560    2.0001200 
H    -6.3220113    2.1189114    1.4908310 
C    -4.7362363    3.7125469    1.6858940 
H    -5.0036847    4.4203530    0.8990346 
C    -1.9261025   -0.7229159    1.8733594 
C    -1.2715552   -1.8400139    1.2756969 
C    -0.8145832   -2.9001802    2.0832003 
H    -0.2863400   -3.7429323    1.6267602 
C    -1.0030709   -2.8729557    3.4718073 
H    -0.6263942   -3.6944073    4.0888807 
C    -1.6601486   -1.7874878    4.0655449 
H    -1.8036408   -1.7580579    5.1496581 
C    -2.1152121   -0.7294861    3.2679250 
H    -2.6323393    0.1220077    3.7166918 
C     1.5021050   -0.4201749    1.9936904 
C     1.3635385   -0.2599818    3.3847725 
H     0.8786215    0.6140166    3.8123568 
C     1.8553127   -1.2391530    4.2582195 
C     2.5146550   -2.3774033    3.7738594 
H     2.9101097   -3.1289366    4.4626944 
C     2.6521474   -2.5394354    2.3911395 
C     2.1441735   -1.5744704    1.5117808 
H     2.2470210   -1.7297519    0.4354729 
C     2.5972580    1.8216125    0.6911992 
C     2.6608877    3.1931044    0.9943482 
H     1.7703324    3.7640352    1.2618696 
C     3.8848142    3.8737927    0.9305425 
C     5.0577025    3.2104404    0.5461902 
H     6.0063222    3.7488512    0.4761783 
C     4.9886071    1.8509097    0.2184996 
C     3.7741161    1.1583134    0.3002348 
H     3.7579707    0.0945162    0.0431526 
C    -0.2835888    2.0548392    1.2588070 
H     0.0131438    2.9145981    0.6286598 
C    -0.2502490    2.5013972    2.7319051 
H    -0.8334726    3.4296898    2.8270853 
H    -0.7214695    1.7465084    3.3776741 
H     0.7741548    2.6989138    3.0907612 
C     3.9514344    5.3464921    1.2792551 
F     4.4807354    5.5377693    2.5075720 
F     4.7259140    6.0238953    0.3972803 
F     2.7235125    5.9210512    1.2705881 
C     6.1930933    1.1290256   -0.3436676 
F     6.2678949   -0.1435277    0.1090604 
F     6.1004690    1.0566160   -1.7036670 
F     7.3492622    1.7517714   -0.0498338 
C     1.6403553   -1.1034653    5.7512889 
F     2.7881220   -1.2890847    6.4353965 
F     1.1431808    0.1093294    6.0851416 
F     0.7564872   -2.0377511    6.1948884 
C     3.2706174   -3.8010436    1.8325119 
F     3.8846585   -3.5698356    0.6440431 
F     4.1763255   -4.3368808    2.6726784 
F     2.3178085   -4.7470701    1.6085282 
C     1.0738439   -5.9076160   -1.6144332 
C    -0.2922283   -5.8840540   -1.2934759 
C    -0.9208281   -4.6786400   -0.9532864 
C    -0.1864051   -3.4744243   -0.9281409 
C     1.1825298   -3.5118421   -1.2623495 
C     1.8124130   -4.7165916   -1.5988157 
H     1.5598639   -6.8521614   -1.8790162 
H    -0.8761825   -6.8100457   -1.3111734 
H    -1.9895597   -4.6811701   -0.7253198 
H     1.7582425   -2.5793529   -1.2830041 
H     2.8791862   -4.7219249   -1.8410363 
C    -5.2496764   -2.1222364   -2.3279790 
C    -4.9291882   -2.8467251   -1.1679726 
C    -3.6414224   -2.7663045   -0.6214578 
C    -2.6608335   -1.9629247   -1.2422770 
C    -2.9962513   -1.2197452   -2.3860258 
C    -4.2833035   -1.3050640   -2.9323232 
H    -6.2571981   -2.1871333   -2.7518240 
H    -5.6870966   -3.4696220   -0.6815883 
H    -3.4122410   -3.2990766    0.3079510 
H    -2.2546308   -0.5536911   -2.8326365 
H    -4.5294640   -0.7258073   -3.8277743 
