132
Energy =
C     2.4109406   -1.8948373    0.1537809 
C     2.1188631   -2.1133704    1.5256481 
C     0.9435046   -2.7971746    1.9282995 
H     2.7532373   -1.6369970    2.2835243 
Pd    0.4344190   -0.9295089    0.7209798 
P    -1.6878638   -0.3210128    1.5116290 
P     0.3544870    0.4762279   -1.1328845 
H     1.9681849   -2.5928532   -0.5727912 
H     0.4804246   -3.4559314    1.1783561 
C     5.8761620    0.1814797   -1.3411474 
C     5.2663472   -0.8329382   -2.0934375 
C     4.1416005   -1.4999674   -1.5921224 
C     3.5993693   -1.1673573   -0.3300540 
C     4.2359680   -0.1534198    0.4223864 
C     5.3595561    0.5110485   -0.0773198 
H     6.7537647    0.7071960   -1.7316363 
H     5.6686824   -1.1091202   -3.0737478 
H     3.6729019   -2.2954543   -2.1800348 
H     3.8332919    0.1354564    1.3987744 
H     5.8327371    1.2982505    0.5188323 
C    -0.1925982   -3.8086351    5.9585610 
C    -0.8806256   -4.3451019    4.8595639 
C    -0.4959958   -4.0057818    3.5572684 
C     0.5735033   -3.1088219    3.3193592 
C     1.2540338   -2.5749337    4.4384254 
C     0.8810120   -2.9297464    5.7393773 
H    -0.4840944   -4.0784722    6.9785540 
H    -1.7121328   -5.0398289    5.0173890 
H    -1.0242617   -4.4439390    2.7038974 
H     2.0866968   -1.8788446    4.2959496 
H     1.4308572   -2.5156239    6.5908314 
Fe   -1.9287820    3.1586990   -1.6408548 
C    -1.2695918    1.2482006   -1.4295717 
C    -2.2387624    1.5924320   -0.3991799 
C    -3.4614488    1.9567728   -1.0720427 
C    -3.2524686    1.8633285   -2.4881541 
C    -1.9043563    1.4378091   -2.7162050 
C    -1.6461299    4.8307713   -0.4877064 
C    -0.4439463    4.5056461   -1.1962051 
C    -0.7397931    4.5143315   -2.6014762 
C    -2.1272201    4.8490448   -2.7596497 
C    -2.6889233    5.0416704   -1.4520575 
C     0.5724211   -0.5902475   -2.6041112 
C     1.7296138   -0.5966991   -3.4017232 
C     1.8762766   -1.5182801   -4.4544840 
C     0.8395746   -2.4488627   -4.6860969 
C    -0.3428993   -2.4594002   -3.9051448 
C    -0.4521222   -1.5257578   -2.8651146 
C     1.6104388    1.7949954   -1.1390157 
C     1.9991485    2.4725412   -2.3109028 
C     2.9291143    3.5207852   -2.2583753 
C     3.4569565    3.8885327   -0.9957750 
C     3.0417857    3.2636742    0.2015244 
C     2.1214609    2.2065182    0.1034981 
C    -2.0139148    1.5044266    1.0914300 
H    -4.3811202    2.2955555   -0.5929865 
H    -3.9836929    2.1134998   -3.2588699 
H    -1.4326092    1.2640526   -3.6845155 
H    -1.7477902    4.9027010    0.5967627 
H     0.5232242    4.2811015   -0.7457061 
H    -0.0355424    4.3028649   -3.4068136 
H    -2.6675077    4.9207997   -3.7054089 
H    -3.7299691    5.2848764   -1.2311840 
H     2.5387559    0.1113020   -3.2068549 
H    -1.3643588   -1.5174812   -2.2563710 
H     1.5601877    2.1996620   -3.2763009 
H     1.7905059    1.6919534    1.0149678 
H    -1.0404095    1.9768254    1.3188583 
H    -1.3724498   -1.5517994    3.5059479 
H    -2.7140792   -1.0586182   -0.4571473 
C    -5.3461808   -1.7297678   -0.2130275 
C    -4.4735029   -0.9218039    0.7668035 
C    -2.9873854   -1.3030836    0.5901288 
C    -2.7737406   -2.8198863    0.7844984 
C    -3.6663920   -3.6298165   -0.1730917 
C    -5.1474333   -3.2431526   -0.0317336 
H    -5.0811047   -1.4422390   -1.2498587 
H    -6.4079635   -1.4595655   -0.0710986 
H    -4.7982844   -1.1268750    1.8016474 
H    -4.6170791    0.1547983    0.5870276 
H    -1.7109202   -3.0699904    0.6159911 
H    -3.0074178   -3.0921508    1.8320675 
H    -3.3344581   -3.4414601   -1.2138103 
H    -3.5272641   -4.7104186    0.0116375 
H    -5.5061840   -3.5391601    0.9739044 
H    -5.7600524   -3.8017732   -0.7616274 
C    -3.1034572   -0.7289803    5.5362384 
C    -3.2057950   -0.5523218    4.0090446 
C    -1.8024844   -0.5417375    3.3634334 
C    -0.8295426    0.4621047    4.0347956 
C    -0.8020461    0.3054433    5.5654042 
C    -2.2142699    0.3526581    6.1677723 
H    -2.6763349   -1.7269652    5.7569580 
H    -4.1169860   -0.7086646    5.9752935 
H    -3.7480634    0.3831709    3.7876916 
H    -3.8017246   -1.3766479    3.5818268 
H     0.1848085    0.3177557    3.6139367 
H    -1.1288781    1.4987061    3.7912713 
H    -0.3379745   -0.6642927    5.8174915 
H    -0.1614747    1.0931197    6.0019026 
H    -2.6649302    1.3501467    5.9918319 
H    -2.1644780    0.2180247    7.2629943 
C    -3.1058481    2.2306358    1.8961895 
H    -4.0878307    1.7404149    1.8117364 
H    -2.8477335    2.2957616    2.9637735 
H    -3.2056527    3.2581363    1.5062939 
C     3.1100317   -1.5245880   -5.3259919 
H     3.7721920   -2.3747345   -5.0741919 
H     2.8369470   -1.6370984   -6.3883379 
H     3.6919883   -0.5980185   -5.1960441 
C    -1.4535527   -3.4392643   -4.2044109 
H    -1.2843817   -4.4073097   -3.6959205 
H    -2.4263435   -3.0512207   -3.8599759 
H    -1.5094190   -3.6415074   -5.2864671 
O     0.9561654   -3.3118843   -5.7535930 
C     1.4775081   -4.6139600   -5.4561125 
H     1.5261021   -5.1546112   -6.4130062 
H     2.4921392   -4.5489875   -5.0184743 
H     0.8198119   -5.1647006   -4.7570320 
C     3.3522035    4.2742318   -3.4963741 
H     4.4031245    4.0538853   -3.7593888 
H     2.7244849    4.0026845   -4.3605446 
H     3.2869939    5.3626772   -3.3297792 
C     3.5816309    3.7145287    1.5375950 
H     4.5078427    3.1678596    1.7991430 
H     3.8257803    4.7888063    1.5165597 
H     2.8519124    3.5264732    2.3424999 
O     4.3428791    4.9413585   -0.9463984 
C     5.7315613    4.5821123   -0.9243179 
H     6.2965839    5.5253921   -0.9550372 
H     5.9918201    4.0285387   -0.0021352 
H     5.9975039    3.9609986   -1.8007982 
