124
Energy =
C     2.8768049    0.8347459    1.0314205 
C     3.3252724   -0.0730722    0.0498107 
C     3.0125380    0.0968010   -1.3385346 
H     3.8098262   -1.0075100    0.3625874 
Pd    1.1384520   -0.1604645   -0.1389484 
P    -0.4539455   -0.3850806   -1.8196009 
P    -0.2488343   -0.7909379    1.6257020 
H     2.5215883    1.8152935    0.6758979 
H     2.9472306    1.1259676   -1.7209247 
C     3.6398871    0.7155582    5.2601386 
C     2.8678336    1.7446204    4.6999517 
C     2.6343105    1.7709258    3.3214814 
C     3.1529638    0.7647932    2.4720920 
C     3.9444338   -0.2544129    3.0509502 
C     4.1827667   -0.2766716    4.4278793 
H     3.8284964    0.6929637    6.3383844 
H     2.4534937    2.5322128    5.3377190 
H     2.0471876    2.5876384    2.8901342 
H     4.3854945   -1.0319641    2.4222643 
H     4.7988877   -1.0738381    4.8554289 
C     4.2589163   -2.9204606   -4.1510375 
C     3.5339189   -3.2864385   -3.0066871 
C     3.1183585   -2.3071320   -2.0978514 
C     3.4137863   -0.9424926   -2.3159112 
C     4.1332007   -0.5886229   -3.4773379 
C     4.5575633   -1.5690238   -4.3822706 
H     4.5812054   -3.6849962   -4.8654365 
H     3.2795199   -4.3364050   -2.8296824 
H     2.5237452   -2.5924812   -1.2210606 
H     4.3659099    0.4641970   -3.6660229 
H     5.1181221   -1.2752222   -5.2751907 
Fe   -3.7924112   -0.3976735   -0.6491573 
C    -2.0243143   -1.1769858   -1.3357936 
C    -2.3848696   -1.7636406   -0.0531122 
C    -3.6807743   -2.3760857   -0.2233484 
C    -4.1191568   -2.1797842   -1.5717232 
C    -3.1156122   -1.4252626   -2.2560925 
C    -4.0860011    1.5931804   -1.0828907 
C    -5.2666623    0.8330065   -1.3595293 
C    -5.6782127    0.1930120   -0.1427559 
C    -4.7471188    0.5579587    0.8847227 
C    -3.7580595    1.4211095    0.3025378 
C    -1.5107310   -2.1098598    1.1355973 
H    -4.2338143   -2.8967959    0.5618822 
H    -5.0758839   -2.4992105   -1.9891859 
H    -3.1565990   -1.1007977   -3.2966344 
H    -3.5300052    2.1860978   -1.8064497 
H    -5.7488196    0.7299214   -2.3334015 
H    -6.5295560   -0.4807163   -0.0273960 
H    -4.7839536    0.2201475    1.9192831 
H    -2.9089378    1.8692779    0.8171920 
H    -2.1652021   -2.2302182    2.0176835 
C    -0.8534189   -3.4795111    0.8384309 
H    -0.1262468   -3.3942986    0.0113906 
H    -0.3448334   -3.8994429    1.7193240 
H    -1.6404835   -4.1832944    0.5199487 
C     2.5884939   -3.3404323    4.3623437 
C     2.6032748   -3.3707085    2.9578908 
C     1.7495360   -2.5368063    2.2326771 
C     0.8269027   -1.6652314    2.8591673 
C     0.8344930   -1.5803503    4.2798851 
C     1.7160250   -2.4279876    4.9806605 
H     3.2927010   -4.0355723    2.4258110 
H     1.7961589   -2.5584775    1.1370140 
H     1.7265178   -2.3544082    6.0748766 
C    -2.5070855    2.6594890    3.7144006 
C    -1.3534721    2.9270408    2.9546629 
C    -0.7192518    1.8478001    2.3129819 
C    -1.2114270    0.5354432    2.4363411 
C    -2.3781706    0.3030745    3.1854956 
C    -3.0390893    1.3606362    3.8340070 
H    -3.0149709    3.4890966    4.2211789 
H     0.1751087    2.0223952    1.7061828 
H    -2.7801730   -0.7105325    3.2844125 
C     3.4879381   -4.2307220    5.1872804 
H     4.2700136   -4.7019616    4.5698968 
H     3.9781872   -3.6625714    5.9974377 
H     2.9043669   -5.0388717    5.6662425 
C    -0.0041163   -0.6250298    5.1006442 
H     0.3444024   -0.6274992    6.1456514 
H     0.0621451    0.4069133    4.7217706 
H    -1.0702150   -0.9086569    5.1034550 
C    -0.8297197    4.3392533    2.8164968 
H    -0.7708153    4.8414513    3.7976036 
H     0.1748138    4.3567776    2.3614417 
H    -1.5003056    4.9447659    2.1794651 
C    -4.3005140    1.1208180    4.6332226 
H    -4.5206364    0.0450690    4.7317919 
H    -4.2161908    1.5486072    5.6476302 
H    -5.1683610    1.6038002    4.1477282 
C     0.8625532   -3.0581010   -5.4148487 
C     0.1375448   -3.5658967   -4.3515339 
C    -0.2701333   -2.7091487   -3.3019240 
C     0.0632857   -1.3529538   -3.2964554 
H     1.1663467   -3.7086262   -6.2419719 
H    -0.1385728   -4.6246605   -4.3208569 
H    -0.8709327   -3.1230594   -2.4855866 
C     0.8578002   -0.8059348   -4.3687390 
C     1.2254000   -1.6814130   -5.4587756 
C     1.9572769   -1.1547390   -6.5637200 
C     2.3265662    0.1784070   -6.6083628 
C     2.0021626    1.0321305   -5.5242697 
C     1.3004641    0.5499331   -4.4308721 
H     2.2227659   -1.8318687   -7.3828280 
H     2.8796587    0.5706492   -7.4678487 
H     2.3191875    2.0801549   -5.5428384 
H     1.0896880    1.2250523   -3.5995321 
C    -0.7441964    2.3737993   -1.5921210 
C    -0.9801785    1.2745260   -2.4083806 
C    -1.6530958    1.4473433   -3.6568264 
C    -2.0781798    2.7040753   -4.0480002 
H    -0.2255928    2.2384118   -0.6352532 
H    -1.8096854    0.5869875   -4.3145827 
H    -2.5888700    2.8338536   -5.0083512 
C    -1.8624877    3.8498541   -3.2224777 
C    -1.1773995    3.6784308   -1.9646607 
C    -0.9586322    4.8155824   -1.1332348 
C    -1.4005333    6.0695585   -1.5222663 
C    -2.0771365    6.2390764   -2.7608738 
C    -2.3014993    5.1538064   -3.5934665 
H    -0.4360127    4.6804902   -0.1805733 
H    -1.2289729    6.9373295   -0.8768518 
H    -2.4209431    7.2356569   -3.0562853 
H    -2.8214670    5.2860566   -4.5484457 
