86
Energy =
C    -0.1632260    3.4696776   -0.0157719 
C     0.1608090    2.4991478    0.8893929 
C     1.2941664    1.5880763    0.7336268 
H    -0.4345991    2.3973541    1.8041230 
Pd    0.4628468   -0.1899767   -0.0900849 
P     1.9712106   -1.8282156    0.4566458 
P    -1.5644723    0.2834945   -1.1591038 
H     0.4641768    3.5559861   -0.9145172 
H     1.9460334    1.8534802   -0.1164752 
C    -3.5515097    6.1068159    0.0145246 
C    -3.2750936    5.3227603    1.1486227 
C    -2.1618442    4.4785630    1.1699009 
C    -1.2945057    4.3902028    0.0500566 
C    -1.5759019    5.2084872   -1.0732111 
C    -2.6922369    6.0511498   -1.0939335 
H    -4.4248733    6.7667893    0.0022264 
H    -3.9305977    5.3779684    2.0239939 
H    -1.9537096    3.8923294    2.0705841 
H    -0.9089401    5.1680167   -1.9423390 
H    -2.8920506    6.6694866   -1.9751412 
C     3.6195292    0.6801455    4.2667499 
C     2.2156697    0.6319246    4.3236195 
C     1.4519383    0.9058175    3.1831746 
C     2.0737473    1.2349479    1.9558887 
C     3.4862298    1.2702670    1.9116277 
C     4.2513837    0.9991535    3.0545356 
H     4.2148818    0.4707956    5.1611146 
H     1.7148634    0.3777107    5.2635734 
H     0.3592110    0.8499025    3.2393671 
H     3.9867502    1.5340155    0.9730271 
H     5.3441307    1.0452688    3.0001019 
Fe   -0.6095274   -2.9850561   -1.5445926 
C    -1.4506431   -1.2095410   -2.2009350 
C    -2.3637395   -2.3127471   -2.3587483 
H    -3.3542669   -2.4005720   -1.9103991 
C    -1.7458254   -3.2848686   -3.2122590 
H    -2.1839373   -4.2390939   -3.5108096 
C    -0.4459786   -2.8030824   -3.5830245 
H     0.2772553   -3.3257607   -4.2112825 
C    -0.2521714   -1.5352713   -2.9559834 
C     0.8130541   -3.1510107   -0.0308841 
C     0.9452557   -4.2046137   -1.0047191 
H     1.8270944   -4.4195007   -1.6097889 
C    -0.2879863   -4.9349940   -1.0434915 
H    -0.4991199   -5.7914092   -1.6864664 
C    -1.2020645   -4.3319294   -0.1167142 
H    -2.2299942   -4.6479753    0.0690209 
C    -0.5416295   -3.2232029    0.4949644 
H     0.6360458   -0.9046751   -3.0348720 
H    -0.9658460   -2.5555744    1.2477482 
C     2.6747115   -2.2993004    2.1310991 
C     3.9620820   -3.0740108    1.7752212 
C     4.6307803   -2.3257223    0.6114870 
C     3.5687366   -2.1155872   -0.4964913 
H     2.9653990   -1.3279172    2.5675836 
H     4.6253852   -3.1454957    2.6557944 
H     3.7078281   -4.1082071    1.4711952 
H     4.9890478   -1.3408159    0.9663495 
H     5.5047349   -2.8675131    0.2092812 
H     3.4281184   -3.0732761   -1.0293184 
C    -2.2026422    1.6869613   -2.2625939 
C    -3.5810809    2.0476925   -1.6459324 
C    -4.2163260    0.7651278   -1.0761921 
C    -3.1565519    0.0771321   -0.1838045 
H    -1.5004484    2.5276382   -2.1400341 
H    -3.4424560    2.7906527   -0.8404559 
H    -4.2274923    2.5216396   -2.4053964 
H    -5.1352705    0.9834248   -0.5027183 
H    -4.5027163    0.0887317   -1.9032437 
H    -3.3407557   -1.0066819   -0.0829421 
C    -3.0391747    0.6919482    1.2216281 
H    -2.8509188    1.7777911    1.1746378 
H    -3.9784976    0.5362573    1.7808424 
C    -2.2695644    1.2960156   -3.7476602 
H    -1.2822928    0.9972002   -4.1386420 
H    -2.9667663    0.4576682   -3.9193102 
C     1.7020042   -3.0020313    3.0793586 
H     0.8184625   -2.3731090    3.2850220 
H     2.2025576   -3.1983567    4.0437972 
C     3.8922235   -1.0137305   -1.5118466 
H     3.1092721   -0.9384159   -2.2858693 
H     4.8517125   -1.2267247   -2.0151865 
H    -2.6212722    2.1605873   -4.3380173 
H    -2.2130694    0.2271613    1.7884035 
H     3.9766538   -0.0303295   -1.0176064 
H     1.3575936   -3.9670689    2.6688974 
