112
Energy =
C    -0.1565819    1.9221549   -2.9097241 
C     0.2742115    2.9803801   -2.0501266 
C     1.5418774    2.9373528   -1.4286682 
H    -0.4394778    3.7680375   -1.7771337 
Pd    0.2062981    1.1427200   -0.8570435 
P     0.7514501    0.9317393    1.4014476 
P    -0.9138278   -0.9095080   -0.8408588 
H     0.6250934    1.3946180   -3.4763350 
H     2.2865643    2.2650904   -1.8832495 
C    -4.0595559    1.9034717   -4.7409537 
C    -3.9133709    2.3180245   -3.4059469 
C    -2.6495155    2.3276429   -2.8070841 
C    -1.5019843    1.9160770   -3.5251034 
C    -1.6639412    1.5052394   -4.8653404 
C    -2.9293174    1.5046926   -5.4689521 
H    -5.0485222    1.8960996   -5.2102889 
H    -4.7904267    2.6311970   -2.8297120 
H    -2.5469793    2.6315097   -1.7593564 
H    -0.7862641    1.1911186   -5.4410461 
H    -3.0320076    1.1898608   -6.5126789 
C     3.3209426    5.9868884    1.0196317 
C     4.0929628    4.9291565    0.5182034 
C     3.4909924    3.9300689   -0.2551047 
C     2.1068039    3.9660944   -0.5449212 
C     1.3385686    5.0276267   -0.0118242 
C     1.9419046    6.0279063    0.7541449 
H     3.7888195    6.7753355    1.6179936 
H     5.1683036    4.8878001    0.7198275 
H     4.1044777    3.1190045   -0.6631452 
H     0.2618144    5.0757492   -0.1991883 
H     1.3319766    6.8442312    1.1531398 
Fe   -0.8338477   -1.6698885    3.4436237 
C    -0.5180963    0.0768587    2.4045841 
C    -1.7106685   -0.6119970    1.9266725 
C    -2.5945128   -0.7555127    3.0585951 
C    -1.9773885   -0.1768774    4.2141664 
C    -0.6956219    0.3195024    3.8241608 
C     0.5729331   -2.6172107    4.5969023 
C    -0.7513392   -2.8866849    5.0772395 
C    -1.4902178   -3.5115948    4.0172103 
C    -0.6241362   -3.6253050    2.8810055 
C     0.6523283   -3.0713195    3.2374610 
C     0.7718481    2.5558771    2.2656352 
C     1.9234844    3.0754967    2.8830175 
C     1.8487846    4.2847633    3.5906581 
C     0.6344058    4.9781247    3.6845119 
C    -0.5114663    4.4736056    3.0482060 
C    -0.4431600    3.2718874    2.3346376 
C     2.4003448    0.2091454    1.7475293 
C     2.6828971   -0.4336076    2.9671380 
C     3.9654297   -0.9414480    3.2152599 
C     4.9783254   -0.7991963    2.2536935 
C     4.7079289   -0.1416951    1.0438373 
C     3.4242379    0.3602493    0.7916307 
C    -2.2044384   -0.8872920    0.5177932 
H    -3.5718948   -1.2427083    3.0328505 
H    -2.3934545   -0.1579908    5.2229827 
H     0.0186917    0.8357019    4.4682691 
H     1.3750963   -2.1546524    5.1743566 
H    -1.1360548   -2.6406194    6.0684557 
H    -2.5351616   -3.8236989    4.0620088 
H    -0.8980878   -4.0587350    1.9206832 
H     1.5310491   -3.0013794    2.5949151 
H     2.8737622    2.5367943    2.8219644 
H    -1.3411023    2.8705277    1.8498888 
H     1.8871679   -0.5501176    3.7064466 
H     3.2096593    0.8672867   -0.1539684 
H    -2.6892034   -1.8804629    0.5174236 
C    -3.2537742    0.1975970    0.1589207 
H    -4.0883872    0.1654647    0.8786555 
H    -2.7890197    1.1972925    0.2173386 
H    -3.6672588    0.0716672   -0.8549652 
H     2.7482983    4.6843354    4.0696579 
H    -1.4604254    5.0163587    3.1114637 
H     4.1752124   -1.4487194    4.1628661 
H     5.4954578   -0.0259825    0.2921272 
H     0.5810450    5.9167478    4.2456652 
H     5.9786639   -1.1994685    2.4480341 
H     0.4666307   -2.0857272    0.6655391 
C     2.7525264   -2.9667014   -0.6229183 
C     1.6749637   -1.9961423   -1.1298084 
C     0.3229573   -2.2547464   -0.4225131 
C    -0.1232813   -3.7180881   -0.6394827 
C     0.9663067   -4.7114578   -0.1837858 
C     2.3224221   -4.4251382   -0.8487632 
H     2.9243348   -2.7826377    0.4563705 
H     3.7110773   -2.7592975   -1.1314007 
H     1.5531852   -2.1223229   -2.2213954 
H     1.9844304   -0.9486020   -0.9669138 
H    -1.0737922   -3.9214598   -0.1145898 
H    -0.3187208   -3.8842271   -1.7138858 
H     1.0853397   -4.6542223    0.9135368 
H     0.6346904   -5.7411420   -0.4080345 
H     2.2456291   -4.6144998   -1.9376414 
H     3.0881192   -5.1201746   -0.4608257 
H    -2.3753518   -0.4268104   -2.6626459 
C    -3.7338126   -2.6960296   -3.5155642 
C    -2.9788638   -2.4493752   -2.1952088 
C    -1.8788126   -1.3775323   -2.3849946 
C    -0.9233597   -1.7427184   -3.5463389 
C    -1.6955461   -2.0323638   -4.8466704 
C    -2.7721802   -3.1077581   -4.6401475 
H    -4.2651590   -1.7687021   -3.8073141 
H    -4.5054076   -3.4706225   -3.3564886 
H    -2.5312167   -3.3993727   -1.8543041 
H    -3.6972587   -2.1369737   -1.4178051 
H    -0.1963115   -0.9252601   -3.7033314 
H    -0.3390751   -2.6416965   -3.2791584 
H    -2.1803363   -1.1023338   -5.1929534 
H    -0.9824704   -2.3364831   -5.6340294 
H    -2.2928484   -4.0723619   -4.3788917 
H    -3.3284308   -3.2755190   -5.5794537 
