132
Energy =
C     1.2368886   -0.9604782   -3.2579334 
C     1.5805539    0.3813165   -2.9394370 
C     2.4887989    0.7119986   -1.9046719 
H     1.0199389    1.1940547   -3.4191045 
Pd    0.7425370   -0.4824768   -1.0893490 
P     0.4904305    0.6205274    0.9406176 
P    -0.7999164   -2.1738946   -0.5267692 
H     1.9851275   -1.7406938   -3.0537737 
H     3.2300662   -0.0499888   -1.6184177 
C    -1.7074118   -2.0151337   -6.2292006 
C    -1.7571013   -0.7543688   -5.6105705 
C    -0.8061473   -0.4020511   -4.6486727 
C     0.2263713   -1.2967887   -4.2814616 
C     0.2739883   -2.5525442   -4.9291781 
C    -0.6839452   -2.9109423   -5.8870180 
H    -2.4571838   -2.2922595   -6.9770785 
H    -2.5505708   -0.0463812   -5.8722422 
H    -0.8827017    0.5730635   -4.1567812 
H     1.0816895   -3.2500634   -4.6841140 
H    -0.6234739   -3.8897440   -6.3741866 
C     3.6075382    4.7163454   -0.7861202 
C     4.4608344    3.6329949   -0.5352944 
C     4.0747775    2.3354885   -0.8894678 
C     2.8345026    2.0927915   -1.5190990 
C     1.9835241    3.1958742   -1.7641668 
C     2.3640583    4.4902619   -1.3988656 
H     3.9079168    5.7319791   -0.5079627 
H     5.4334759    3.7972066   -0.0630802 
H     4.7465609    1.4945935   -0.6869342 
H     1.0075560    3.0444048   -2.2343454 
H     1.6874816    5.3289042   -1.5935057 
Fe    0.7017124   -1.5538733    3.8200932 
C    -0.0736954   -0.3815520    2.3470478 
C    -0.6370694   -1.7261916    2.3103558 
C    -1.2815349   -1.9420851    3.5842200 
C    -1.0915262   -0.7857729    4.4084154 
C    -0.3316322    0.1695333    3.6639189 
C     1.8250953   -1.6403794    5.5238625 
C     1.3343927   -2.9435177    5.1750791 
C     1.8230892   -3.2658802    3.8641090 
C     2.6089391   -2.1600519    3.4015845 
C     2.6081927   -1.1502184    4.4276593 
C    -0.9162377    1.7736061    0.6166288 
C    -1.7502220    2.2849174    1.6306108 
C    -2.8815222    3.0572111    1.3221884 
C    -3.1663489    3.3244622   -0.0382326 
C    -2.3520814    2.8262015   -1.0801523 
C    -1.2344987    2.0553235   -0.7255231 
C     1.8460203    1.6309005    1.6386899 
C     3.0776596    0.9970820    1.8857851 
C     4.1305709    1.6732455    2.5179066 
C     3.9281712    3.0260460    2.8823530 
C     2.7173138    3.7001472    2.6052113 
C     1.6824574    2.9836847    1.9781083 
C    -0.4845203   -2.7862854    1.2270006 
H    -1.7898388   -2.8531413    3.9003688 
H    -1.4266165   -0.6781285    5.4415934 
H     0.0141967    1.1437154    4.0156991 
H     1.6107363   -1.1015366    6.4485786 
H     0.6836226   -3.5692672    5.7887718 
H     1.6211733   -4.1864936    3.3124974 
H     3.1142038   -2.1012998    2.4358614 
H     3.0972165   -0.1772170    4.3770774 
H    -1.5512360    2.0522529    2.6797875 
H    -0.6220000    1.6108046   -1.5199062 
H     3.2154884   -0.0477085    1.5874393 
H     0.7355510    3.4916785    1.7675350 
H     0.5946538   -3.0167887    1.1618783 
H    -0.3598097   -3.1698369   -2.6119475 
H    -3.1161189   -2.8208622   -0.6775071 
C    -4.3644739   -0.9056823   -2.3297243 
C    -2.8724439   -1.1953363   -2.0958067 
C    -2.6249692   -1.8291062   -0.7100754 
C    -3.2180393   -0.9606343    0.4186380 
C    -4.7128957   -0.6848579    0.1702411 
C    -4.9528691   -0.0397505   -1.2041160 
H    -4.9163207   -1.8647165   -2.3851258 
H    -4.4913008   -0.4122755   -3.3107494 
H    -2.2998274   -0.2499932   -2.1483241 
H    -2.4797376   -1.8440899   -2.8982336 
H    -3.0835000   -1.4518257    1.3972986 
H    -2.6757243   -0.0011550    0.4678592 
H    -5.2760340   -1.6373061    0.2328527 
H    -5.1004591   -0.0336836    0.9743971 
H    -4.4776966    0.9594659   -1.2201750 
H    -6.0333285    0.1207444   -1.3684342 
C    -1.0312645   -6.1046660   -2.1288147 
C    -1.6032549   -4.7146185   -1.7671163 
C    -0.4703540   -3.6548865   -1.6266626 
C     0.8949884   -4.2976151   -1.2923114 
C     1.3500546   -5.2616037   -2.4159018 
C     0.1535691   -5.9725009   -3.0974301 
H    -1.8315944   -6.7273479   -2.5649650 
H    -0.6983234   -6.6270550   -1.2109349 
H    -2.2139439   -4.7973181   -0.8527741 
H    -2.2884366   -4.3792903   -2.5659791 
H     1.6581066   -3.5121664   -1.1296968 
H     0.8171918   -4.8538159   -0.3408150 
H     1.9373659   -4.7076275   -3.1705422 
H     2.0382961   -6.0081338   -1.9812078 
H     0.4652049   -6.9613621   -3.4750146 
H    -0.1790509   -5.3922019   -3.9792289 
C    -1.2289896   -4.0825596    1.5920165 
H    -0.8994240   -4.4288819    2.5866514 
H    -2.3214426   -3.9322850    1.6261210 
H    -1.0106370   -4.8897740    0.8782522 
C    -3.8113386    3.5676241    2.3972858 
H    -4.8611462    3.3569094    2.1321016 
H    -3.5846900    3.1051060    3.3712266 
H    -3.7257175    4.6637573    2.5141583 
C    -2.7079039    3.0697410   -2.5282024 
H    -2.3766812    2.2283656   -3.1599164 
H    -3.7968250    3.1916419   -2.6451315 
H    -2.2244705    3.9862790   -2.9156995 
O    -4.3277437    3.9979500   -0.3418443 
C    -4.1980078    5.4070537   -0.5814030 
H    -5.2125275    5.7805330   -0.7845138 
H    -3.7839745    5.9254849    0.3039916 
H    -3.5492948    5.6111968   -1.4541658 
C     5.4497830    0.9953653    2.8038382 
H     6.2013128    1.2466107    2.0309731 
H     5.8567512    1.3290465    3.7724784 
H     5.3421481   -0.1016746    2.8167164 
C     2.5452803    5.1517771    2.9820207 
H     3.0992873    5.3838041    3.9060141 
H     2.9358515    5.8118096    2.1839715 
H     1.4814930    5.4027921    3.1243675 
O     4.9134119    3.6777099    3.5937862 
C     5.8747722    4.4213072    2.8371866 
H     6.5340561    4.9102324    3.5697790 
H     6.4795866    3.7569975    2.1904844 
H     5.3880336    5.1917721    2.2098654 
