110
Energy =
C     2.8666909    1.1943125    0.3804872 
C     2.8219854    1.1698802   -1.0320738 
C     2.1329569    2.1741184   -1.7699286 
H     3.2459528    0.3108634   -1.5658689 
Pd    0.7148216    0.9948336   -0.4011868 
P    -1.4928490    1.5092055   -1.1324681 
P     0.0529160   -0.5122493    1.2382206 
H     2.6242031    2.1538801    0.8619171 
H     2.0317856    3.1578994   -1.2890025 
C     5.0830580   -1.4323044    2.9600891 
C     4.4242500   -0.3071174    3.4771563 
C     3.6904699    0.5263793    2.6252967 
C     3.5993501    0.2532974    1.2398609 
C     4.2595360   -0.8934087    0.7377142 
C     4.9953024   -1.7232912    1.5878954 
H     5.6637089   -2.0837106    3.6213367 
H     4.4896291   -0.0717904    4.5443877 
H     3.1901214    1.4109826    3.0328622 
H     4.2077841   -1.1369183   -0.3275635 
H     5.4935543   -2.6089679    1.1836326 
C     1.9963604    2.2825494   -6.0784621 
C     2.1554999    1.0544073   -5.4158023 
C     2.2023507    1.0073947   -4.0188731 
C     2.0901816    2.1879744   -3.2461064 
C     1.9554130    3.4184322   -3.9307347 
C     1.9041444    3.4650926   -5.3292644 
H     1.9546306    2.3173353   -7.1717583 
H     2.2405375    0.1275618   -5.9926537 
H     2.3187311    0.0379258   -3.5226594 
H     1.9019372    4.3504084   -3.3574717 
H     1.8001750    4.4299182   -5.8361923 
Fe   -2.4396522   -2.7348579   -0.1937667 
C    -1.5601082   -1.3144128    1.0257179 
C    -2.7031012   -0.7207043    0.3600688 
C    -3.8433229   -1.5416199    0.6855887 
C    -3.4304220   -2.5932447    1.5667455 
C    -2.0155153   -2.4787101    1.7580163 
C    -3.5637449   -3.9466614   -1.3983416 
C    -2.6219196   -3.2263563   -2.1997807 
C    -1.3057453   -3.5462602   -1.7288345 
C    -1.4294991   -4.4644453   -0.6362723 
C    -2.8268028   -4.7196182   -0.4381873 
C    -0.0573363    0.2524193    2.9136390 
C     0.3394900    1.5956332    3.0599973 
C     0.2308937    2.2456704    4.2957289 
C    -0.2833687    1.5526069    5.4001059 
C    -0.6996417    0.2165823    5.2647604 
C    -0.5925758   -0.4279936    4.0286795 
C     1.1672122   -1.9652485    1.3723828 
C     1.4661997   -2.6182840    0.1580629 
C     2.2469541   -3.7756189    0.1494540 
C     2.7517236   -4.2800005    1.3607792 
C     2.4815239   -3.6212680    2.5681061 
C     1.6907867   -2.4634035    2.5763691 
C    -2.8601554    0.7421117   -0.0403943 
H    -4.8630519   -1.3637723    0.3362662 
H    -4.0710033   -3.3797723    1.9700298 
H    -1.3817296   -3.1574670    2.3330464 
H    -4.6505429   -3.9073446   -1.4913488 
H    -2.8680519   -2.5682776   -3.0317869 
H    -0.3702305   -3.1806861   -2.1508004 
H    -0.6081533   -4.8853833   -0.0539463 
H    -3.2571673   -5.3629499    0.3313636 
H     0.7158724    2.1411154    2.1882551 
H    -0.9438085   -1.4588736    3.9334371 
H     1.0793296   -2.2066128   -0.7797335 
H     1.5028747   -1.9479032    3.5218831 
H    -3.7779626    0.8348822   -0.6431289 
C    -3.1193036    1.4690005    1.3078141 
H    -3.8924269    0.9059615    1.8565735 
H    -2.2184261    1.4887445    1.9412855 
H    -3.4859593    2.4962788    1.1763202 
C    -0.3919672    2.2204717    6.7559763 
F     0.4884503    1.6785304    7.6306222 
F    -0.1412589    3.5464273    6.6894870 
F    -1.6289449    2.0567956    7.2799376 
H     0.5348163    3.2905281    4.4023813 
H    -1.1180336   -0.3137232    6.1257366 
H     2.4702661   -4.2886350   -0.7907934 
H     2.8946390   -4.0099463    3.5027814 
C     3.6622450   -5.4870512    1.3353591 
F     4.9313822   -5.1282843    0.9944021 
F     3.7293806   -6.0990541    2.5365487 
F     3.2532819   -6.3977567    0.4226214 
C    -1.8542655    0.7443853   -2.8641637 
C    -1.8303043    3.4047387   -1.0768976 
C    -1.4891507    1.6736275   -4.0372092 
H    -1.5226700    1.0728483   -4.9644346 
H    -2.2081597    2.4997717   -4.1550839 
H    -0.4718415    2.0836544   -3.9514643 
C    -1.0109729    4.1389732   -2.1623902 
H    -0.9555999    5.2080895   -1.8887041 
H     0.0153462    3.7515662   -2.2216394 
H    -1.4630028    4.0789633   -3.1603847 
C    -0.9163014   -0.4786776   -2.9025269 
H    -1.1107181   -1.0745894   -3.8135692 
H     0.1380682   -0.1576304   -2.9233475 
H    -1.0769875   -1.1158884   -2.0192285 
C    -3.3211676    0.2923734   -3.0200220 
H    -3.4491308   -0.1312320   -4.0333770 
H    -3.5920401   -0.4926333   -2.2952396 
H    -4.0305413    1.1328191   -2.9259681 
C    -3.3234917    3.7402833   -1.2779450 
H    -3.4522175    4.8378079   -1.2433678 
H    -3.6761169    3.3982457   -2.2658143 
H    -3.9819796    3.3081069   -0.5089132 
C    -1.2771927    3.9258002    0.2762904 
H    -1.4839295    5.0092336    0.3470614 
H    -1.7064469    3.4440234    1.1632014 
H    -0.1807628    3.7888871    0.3131365 
