124
Energy =
C    -0.6346503    2.4265712   -2.2225199 
C    -1.3739207    1.4395860   -2.9300489 
C    -2.5319241    0.8584224   -2.3624577 
H    -0.9815747    1.0484639   -3.8765825 
Pd   -0.6403095    0.5021471   -1.0588945 
P    -1.1787989   -1.4576456    0.1031181 
P     1.1568348    1.1273407    0.3495341 
H    -1.1980726    3.0099578   -1.4782521 
H    -2.9969183    1.4064622   -1.5296809 
C     2.9325126    4.4129307   -3.5988541 
C     2.1236695    4.9931926   -2.6106724 
C     0.9580486    4.3425496   -2.1868013 
C     0.5841487    3.0880809   -2.7243880 
C     1.4072073    2.5203303   -3.7246507 
C     2.5604968    3.1798730   -4.1614280 
H     3.8409214    4.9210367   -3.9377293 
H     2.3932205    5.9620486   -2.1775734 
H     0.3186405    4.8170299   -1.4335254 
H     1.1518206    1.5471921   -4.1568802 
H     3.1794632    2.7266613   -4.9425429 
C    -5.3202898   -1.7670787   -4.3326898 
C    -5.5610799   -1.3092769   -3.0282795 
C    -4.6335851   -0.4732714   -2.3958136 
C    -3.4391481   -0.0817896   -3.0447887 
C    -3.2090958   -0.5588046   -4.3572953 
C    -4.1407050   -1.3856636   -4.9930870 
H    -6.0480156   -2.4126893   -4.8344866 
H    -6.4813478   -1.5930678   -2.5071915 
H    -4.8396302   -0.0989187   -1.3877344 
H    -2.3029053   -0.2687656   -4.8983880 
H    -3.9469033   -1.7341881   -6.0126035 
Fe    2.7819706   -1.2567206    2.7289390 
C     1.4364511    0.0134609    1.7769170 
C     0.9133596   -1.3432600    1.9052928 
C     0.8825713   -1.6673754    3.3087282 
C     1.4064797   -0.5603970    4.0511426 
C     1.7752128    0.4590433    3.1164784 
C     3.8332659   -2.9557435    2.2442692 
C     4.4533043   -1.8056385    1.6540738 
C     4.8073739   -0.8993161    2.7114865 
C     4.4008992   -1.4880420    3.9521398 
C     3.7969473   -2.7579294    3.6640040 
C     0.3729747   -2.2412047    0.8184167 
H     0.5559757   -2.6215902    3.7274730 
H     1.5497139   -0.5214258    5.1326462 
H     2.2201001    1.4211627    3.3706759 
H     3.4536695   -3.8312489    1.7147951 
H     4.6346438   -1.6485941    0.5899435 
H     5.3061101    0.0639896    2.5983117 
H     4.5098712   -1.0397315    4.9413725 
H     3.3651695   -3.4433067    4.3959088 
H     0.1737721    3.2493207    0.1565316 
C     0.7300625    5.0244964    2.1594717 
C     1.4747644    3.7312179    1.7692052 
C     0.5102934    2.7443475    1.0795939 
C    -0.7470280    2.4664770    1.9332466 
C    -1.4589689    3.7706284    2.3313123 
C    -0.4982535    4.7396229    3.0370918 
H     0.4062167    5.5451136    1.2359606 
H     1.4288606    5.7070011    2.6752887 
H     1.9151248    3.2804943    2.6766033 
H     2.3059622    3.9833383    1.0900314 
H    -1.4366162    1.8185958    1.3609913 
H    -0.4613240    1.9050797    2.8427239 
H    -1.8642018    4.2548027    1.4202899 
H    -2.3252411    3.5377104    2.9766367 
H    -0.1682031    4.2937834    3.9963106 
H    -1.0170720    5.6816723    3.2884025 
H     2.5681083    2.4358561   -1.0626598 
C     4.4529159    0.6934798   -2.2376771 
C     3.1421131    0.3886366   -1.4932611 
C     2.7804116    1.5093218   -0.4948656 
C     3.9449076    1.7478865    0.4868313 
C     5.2554294    2.0534708   -0.2620700 
C     5.6125732    0.9427005   -1.2609539 
H     4.3063114    1.5924705   -2.8646164 
H     4.6920619   -0.1400713   -2.9228423 
H     3.2555672   -0.5562049   -0.9305656 
H     2.3117068    0.2411849   -2.2083145 
H     3.7183371    2.5675905    1.1856667 
H     4.0553858    0.8382052    1.0991453 
H     5.1457764    3.0129692   -0.8047015 
H     6.0718976    2.1950741    0.4696031 
H     5.8369839    0.0102452   -0.7060434 
H     6.5311389    1.2046569   -1.8156013 
H    -1.5111579   -0.3929039    2.1659021 
C    -3.2194174   -1.6686077    3.8447606 
C    -2.5905436   -2.2179054    2.5501509 
C    -2.2098343   -1.0525982    1.6121251 
C    -3.4626484   -0.2196502    1.2691881 
C    -4.1218207    0.3226071    2.5509866 
C    -4.4558830   -0.8069591    3.5393615 
H    -2.4634795   -1.0619634    4.3816934 
H    -3.4888074   -2.5062319    4.5128909 
H    -3.3250483   -2.8715299    2.0437527 
H    -1.7118193   -2.8413508    2.7879959 
H    -3.1940121    0.6142950    0.5956453 
H    -4.1845049   -0.8551726    0.7206201 
H    -3.4259453    1.0384285    3.0315079 
H    -5.0323184    0.8921134    2.2913405 
H    -5.2452802   -1.4502272    3.1027374 
H    -4.8725185   -0.3873007    4.4721920 
H    -3.0755893   -2.4236752   -0.9536199 
C    -2.8753491   -5.1809349   -1.1084959 
C    -2.0380356   -4.2051592   -0.2581990 
C    -2.0317956   -2.7945437   -0.8932912 
C    -1.4848795   -2.8725203   -2.3387638 
C    -2.3294799   -3.8401792   -3.1845618 
C    -2.3710602   -5.2429994   -2.5586568 
H    -3.9322525   -4.8490978   -1.0993526 
H    -2.8537155   -6.1836878   -0.6449959 
H    -0.9980160   -4.5815085   -0.2040015 
H    -2.4229354   -4.1817817    0.7731955 
H    -1.4698044   -1.8677786   -2.7934932 
H    -0.4389281   -3.2280544   -2.3182333 
H    -3.3570872   -3.4403283   -3.2632803 
H    -1.9281323   -3.8820808   -4.2131038 
H    -1.3541409   -5.6832060   -2.5722886 
H    -3.0128190   -5.9128724   -3.1583532 
H     0.0642240   -3.1819496    1.3064279 
C     1.3542924   -2.5679207   -0.3234621 
H     1.0440067   -3.4765210   -0.8637669 
H     1.4138436   -1.7416375   -1.0508271 
H     2.3587449   -2.7326304    0.0916797 
