134
Energy =
C    -0.5661838    1.4492675   -3.3078283 
C     0.5033857    0.5576671   -3.5762659 
C     0.2855123   -0.8485034   -3.5541669 
H     1.5271244    0.9439373   -3.6479416 
Pd   -0.1647171    0.0428159   -1.5577710 
P     0.3412512   -1.6253248   -0.0398924 
P    -1.0060670    1.4642199    0.1335093 
H    -1.5776067    1.0794443   -3.5249727 
H    -0.7487052   -1.1883854   -3.7183498 
C    -0.3458126    5.7383975   -3.0785000 
C    -1.5846444    5.0873003   -3.1679375 
C    -1.6402332    3.6899683   -3.2316950 
C    -0.4588595    2.9134990   -3.2077320 
C     0.7812755    3.5843810   -3.0949232 
C     0.8357339    4.9793771   -3.0384646 
H    -0.2987427    6.8313216   -3.0331248 
H    -2.5118464    5.6692691   -3.1945368 
H    -2.6104309    3.1870527   -3.3039060 
H     1.7104746    3.0090697   -3.0456630 
H     1.8052639    5.4801338   -2.9526999 
C     3.1715473   -3.8607701   -4.5833910 
C     3.6083099   -2.5614445   -4.2744608 
C     2.6899366   -1.5784623   -3.8935690 
C     1.3070209   -1.8706247   -3.8334728 
C     0.8878981   -3.1916999   -4.1089765 
C     1.8097561   -4.1771396   -4.4797293 
H     3.8933812   -4.6242376   -4.8902932 
H     4.6733224   -2.3131941   -4.3365693 
H     3.0498610   -0.5741707   -3.6487833 
H    -0.1771308   -3.4398672   -4.0425042 
H     1.4628631   -5.1927791   -4.6948321 
Fe    4.1514948    1.1976526    0.7953590 
C     2.4891516    0.1486967    0.2734268 
C     2.3740644    1.5677734   -0.1474186 
C     3.5060452    1.8082519   -1.0332219 
H     3.7136624    2.7617248   -1.5214008 
C     4.2954253    0.6294155   -1.1586784 
H     5.2158807    0.5269557   -1.7356022 
C     3.6789301   -0.3785760   -0.3609799 
H     4.0798381   -1.3789722   -0.2042940 
C     4.3133783    2.4802059    2.3903096 
H     3.5902547    3.2476521    2.6732587 
C     5.4179442    2.6467948    1.4881883 
H     5.6966823    3.5673849    0.9712665 
C     6.0951978    1.3843020    1.3799155 
H     6.9699952    1.1766249    0.7611311 
C     5.4078378    0.4390973    2.2142005 
H     5.6698615   -0.6131033    2.3393780 
C     4.3084573    1.1204567    2.8398678 
H     3.5888709    0.6879948    3.5367457 
C     1.5208963    2.7850022    0.1372007 
C     0.1006616    2.9275470    0.1264788 
C    -0.4874462    4.2094938    0.1856601 
H    -1.5727624    4.2994756    0.1137632 
C     0.2767252    5.3700347    0.2983198 
H    -0.2115370    6.3488747    0.3249419 
C     1.6692330    5.2507404    0.3741966 
H     2.3024349    6.1370512    0.4857734 
C     2.2594414    3.9907503    0.2897395 
H     3.3471508    3.9164540    0.3365221 
C    -1.1536967   -2.0321045    0.9499476 
C    -1.1079650   -2.5212690    2.2659805 
H    -0.1507156   -2.6384269    2.7809497 
C    -2.2900025   -2.8693803    2.9445888 
C    -3.5186798   -2.7253302    2.2727948 
H    -4.4440053   -2.9939852    2.7963899 
C    -3.5967314   -2.2380060    0.9544945 
C    -2.3977457   -1.8993253    0.3028695 
H    -2.4275833   -1.5192912   -0.7256826 
C     0.9594694   -3.2889269   -0.5192792 
C     0.0951771   -4.4021206   -0.4520218 
H    -0.9374673   -4.2770249   -0.1117528 
C     0.5449279   -5.6874027   -0.8040242 
C     1.8892534   -5.8478950   -1.1873258 
H     2.2587615   -6.8520745   -1.4292717 
C     2.7723208   -4.7563731   -1.2678258 
C     2.2801469   -3.4732469   -0.9724437 
H     2.9391177   -2.6136046   -1.0982210 
C     1.6095582   -0.7764033    1.1055308 
H     0.9521138   -0.1813338    1.7565739 
C     2.4076882   -1.7613147    1.9780602 
H     2.9823127   -2.4836744    1.3777193 
H     3.1126856   -1.2018464    2.6103370 
H     1.7411203   -2.3427673    2.6334026 
C    -0.3942616   -6.8732674   -0.7674894 
C     4.2296725   -4.9642670   -1.6144389 
C    -2.2227875   -3.3786830    4.3668641 
C    -4.9266897   -2.0259502    0.2662717 
C    -1.4047785    0.7519564    4.7252154 
C    -2.4935654    0.4556752    3.8830855 
C    -2.3426735    0.6441585    2.4986644 
C    -1.1490852    1.1653132    1.9632797 
C    -0.0918810    1.4946185    2.8353496 
C    -0.1978445    1.2686206    4.2201991 
H    -1.5089979    0.5991120    5.8066752 
H    -3.1776000    0.3982280    1.8370178 
H     0.8270534    1.9455342    2.4454113 
C    -5.4341969    2.4855149   -0.8150866 
C    -4.7511385    1.5457788   -1.6035420 
C    -3.3979553    1.2879993   -1.3056990 
C    -2.7415424    1.9501897   -0.2564593 
C    -3.4674503    2.8610132    0.5431654 
C    -4.8127761    3.1495459    0.2646105 
H    -6.4889139    2.6954010   -1.0312969 
H    -2.8483797    0.5416656   -1.8903983 
H    -2.9924793    3.3265848    1.4129643 
H    -3.2259970   -3.5859621    4.7728890 
H    -1.6310194   -4.3098173    4.4270172 
H    -1.7307216   -2.6369508    5.0221990 
H    -4.8971210   -2.3755532   -0.7804670 
H    -5.7428870   -2.5548060    0.7846184 
H    -5.1801915   -0.9487713    0.2415608 
H    -1.3225193   -6.6381889   -0.2211179 
H    -0.6752031   -7.1804558   -1.7923730 
H     0.0801125   -7.7457733   -0.2855605 
H     4.3531260   -5.7168783   -2.4110653 
H     4.7022880   -4.0271250   -1.9498541 
H     4.7856975   -5.3288315   -0.7298668 
C    -3.8094393   -0.0161807    4.4610545 
H    -4.2779087    0.7846958    5.0623031 
H    -4.5166138   -0.3049946    3.6673706 
H    -3.6688192   -0.8829992    5.1296276 
C     0.9664933    1.5725858    5.1379907 
H     0.6253520    1.9690162    6.1091124 
H     1.5483042    0.6544070    5.3470035 
H     1.6546469    2.3068188    4.6869398 
C    -5.4292506    0.8230815   -2.7466781 
H    -5.2450468   -0.2647846   -2.6936759 
H    -6.5187010    0.9879447   -2.7425543 
H    -5.0394337    1.1733130   -3.7207260 
C    -5.5844087    4.1473399    1.0993559 
H    -5.0382660    4.4136287    2.0190695 
H    -5.7615553    5.0784278    0.5296224 
H    -6.5734151    3.7489241    1.3854463 
