112
Energy =
C     1.1255823    0.4252594   -2.7708479 
C     1.0378141    1.7838251   -2.3772363 
C     1.8789985    2.3141774   -1.3622914 
H     0.2424982    2.4208563   -2.7854918 
Pd    0.5765664    0.6273307   -0.5609695 
P     1.0005717    0.9818518    1.7333801 
P    -0.6151482   -1.3429745   -0.1697749 
H     2.0536557   -0.1014589   -2.5016623 
H     2.8547019    1.8276813   -1.2145657 
C    -0.7892930   -1.3737196   -6.1805864 
C     0.1777040   -2.0755598   -5.4451148 
C     0.7697824   -1.4840355   -4.3229086 
C     0.4043539   -0.1826430   -3.9028572 
C    -0.5844847    0.5040422   -4.6466177 
C    -1.1662988   -0.0820664   -5.7752847 
H    -1.2459155   -1.8274274   -7.0658905 
H     0.4816759   -3.0808106   -5.7545731 
H     1.5414819   -2.0281905   -3.7666308 
H    -0.8901859    1.5141014   -4.3558829 
H    -1.9197588    0.4717731   -6.3444341 
C     1.7302896    6.4690075   -0.2575574 
C     0.5357554    5.7476168   -0.4181058 
C     0.5740143    4.3937762   -0.7658733 
C     1.8072771    3.7285490   -0.9456525 
C     3.0012799    4.4617654   -0.7657830 
C     2.9622277    5.8227806   -0.4385030 
H     1.6994634    7.5299507    0.0106612 
H    -0.4292064    6.2424762   -0.2676454 
H    -0.3610055    3.8364812   -0.8865890 
H     3.9662546    3.9604255   -0.9023365 
H     3.8973951    6.3799856   -0.3192295 
Fe   -2.9225521    0.6527196    1.4053881 
C    -1.7820049   -1.0304669    1.1883696 
C    -1.4455331   -0.3221668    2.4195516 
C    -2.6480192   -0.2453698    3.2107284 
C    -3.7148376   -0.8755115    2.4971557 
C    -3.1924718   -1.3546723    1.2541725 
C    -2.3229688    2.5427969    0.8573836 
C    -2.8208996    1.8291156   -0.2797824 
C    -4.1750137    1.4411608   -0.0080623 
C    -4.5144267    1.9182086    1.3029505 
C    -3.3690003    2.5980422    1.8393896 
C    -0.0991750    0.0690675    2.9842436 
H    -2.7209085    0.2282895    4.1920926 
H    -4.7531696   -0.9521262    2.8241978 
H    -3.7713055   -1.8659479    0.4857977 
H    -1.3286442    2.9779777    0.9474962 
H    -2.2542984    1.6147716   -1.1864109 
H    -4.8309498    0.8756637   -0.6721423 
H    -5.4695835    1.7726742    1.8107181 
H    -3.3115687    3.0710628    2.8214470 
H    -0.2957663    0.8296430    3.7572325 
C     0.5892684   -1.1143860    3.7037470 
H    -0.1589764   -1.6296675    4.3298817 
H     1.0136153   -1.8486469    3.0038468 
H     1.4044165   -0.7638554    4.3548209 
H     1.2305119   -2.0976274    1.0942356 
C     2.5365639   -4.1429717   -0.1459878 
C     1.4339243   -3.2266644   -0.7090805 
C     0.5554548   -2.6782618    0.4359749 
C    -0.0542549   -3.8055488    1.2962024 
C     1.0661496   -4.7078891    1.8479691 
C     1.9433280   -5.2703255    0.7161595 
H     3.2261644   -3.5346765    0.4715951 
H     3.1343503   -4.5620842   -0.9753797 
H     0.8108900   -3.7975894   -1.4235034 
H     1.8800220   -2.3879799   -1.2770053 
H    -0.6503390   -3.3743836    2.1197193 
H    -0.7468372   -4.4162686    0.6930909 
H     1.6987278   -4.1211328    2.5436200 
H     0.6242237   -5.5291415    2.4397977 
H     1.3296373   -5.9344189    0.0758003 
H     2.7525559   -5.8954978    1.1335046 
H    -0.7756847   -2.1395935   -2.3880966 
C    -3.3700011   -1.5589918   -3.3628349 
C    -2.5983033   -1.0309474   -2.1429405 
C    -1.5655094   -2.0514345   -1.6164736 
C    -2.1714528   -3.4599593   -1.4080877 
C    -2.9317355   -3.9338699   -2.6612653 
C    -4.0095277   -2.9259099   -3.0833491 
H    -2.6746313   -1.6541564   -4.2155862 
H    -4.1343037   -0.8172241   -3.6580481 
H    -3.3076151   -0.7765517   -1.3378304 
H    -2.0710000   -0.0978439   -2.4069856 
H    -1.3718553   -4.1815986   -1.1755044 
H    -2.8574256   -3.4625590   -0.5421422 
H    -2.2119957   -4.0651597   -3.4931803 
H    -3.3744203   -4.9264390   -2.4631150 
H    -4.7640114   -2.8314027   -2.2764094 
H    -4.5470775   -3.2886257   -3.9774486 
C     5.3118189   -0.6194168    2.5095662 
C     4.6709565    0.1575475    3.4887760 
C     3.3819191    0.6558275    3.2625020 
C     2.7148956    0.3776869    2.0492798 
C     3.3712930   -0.3925887    1.0691792 
C     4.6622732   -0.8914108    1.2974527 
H     6.3204150   -1.0050482    2.6904537 
H     5.1797151    0.3788856    4.4326882 
H     2.8971577    1.2739009    4.0259474 
H     2.8625419   -0.5927570    0.1174849 
H     5.1602976   -1.4869604    0.5253815 
C     1.1270142    5.3369380    3.3937020 
C     2.2312960    4.7969783    2.7190326 
C     2.1890612    3.4866619    2.2276583 
C     1.0408213    2.6893373    2.4197192 
C    -0.0633377    3.2383669    3.1062455 
C    -0.0197652    4.5536294    3.5869909 
H     1.1623431    6.3633257    3.7726787 
H     3.1316743    5.3992409    2.5665548 
H     3.0601853    3.0770420    1.7093143 
H    -0.9658228    2.6410585    3.2653232 
H    -0.8845493    4.9632803    4.1192956 
