98
Energy =
C     1.9531774   -0.8499861   -2.3498666 
C     2.6537643   -0.8480855   -1.1362856 
C     2.2989247   -1.7446064   -0.0694470 
H     3.4575764   -0.1200636   -0.9670234 
Pd    0.6385097   -0.3316446   -0.3374253 
P    -0.6182148   -1.4374086    1.3389416 
P    -0.5871909    1.6963835   -0.8142354 
H     1.2459097   -1.6781442   -2.5089111 
H     1.8932095   -2.7261488   -0.3552759 
C     2.7620095    1.3706739   -5.9289366 
C     1.7932755    0.3554716   -5.9160401 
C     1.5446338   -0.3562999   -4.7383525 
C     2.2582289   -0.0697750   -3.5480387 
C     3.2514315    0.9402053   -3.5856627 
C     3.4929531    1.6548340   -4.7614873 
H     2.9568750    1.9332117   -6.8476271 
H     1.2316690    0.1194897   -6.8254945 
H     0.7856601   -1.1464877   -4.7296995 
H     3.8376695    1.1692149   -2.6911634 
H     4.2609426    2.4348995   -4.7738709 
C     4.4996024   -1.6543000    3.6313428 
C     4.0418391   -0.4554974    3.0597624 
C     3.3258586   -0.4812117    1.8583459 
C     3.0418634   -1.7061802    1.2103837 
C     3.5057122   -2.9017057    1.7973486 
C     4.2322153   -2.8746866    2.9939639 
H     5.0620327   -1.6353558    4.5705274 
H     4.2453196    0.5008823    3.5529384 
H     2.9623881    0.4561353    1.4197248 
H     3.2958460   -3.8578936    1.3083324 
H     4.5845355   -3.8130787    3.4338227 
Fe   -2.5631913    1.2102658    2.0431127 
C    -2.1043420    1.8986737    0.1933887 
C    -2.5681855    2.9822323    1.0378264 
H    -2.0151138    3.8807577    1.3082721 
C    -3.8909968    2.6735565    1.4929292 
H    -4.4882360    3.2856036    2.1712607 
C    -4.2709752    1.4089579    0.9399101 
H    -5.2076720    0.8800251    1.1239804 
C    -3.1800740    0.9240387    0.1486891 
C    -1.4747566   -0.3920833    2.5528239 
C    -2.8163327   -0.4979601    3.0882295 
H    -3.5508973   -1.2654035    2.8439660 
C    -3.0357374    0.6274498    3.9494451 
H    -3.9662725    0.8518303    4.4741589 
C    -1.8474088    1.4287796    3.9614632 
H    -1.7083759    2.3638447    4.5066734 
C    -0.8816222    0.8031801    3.1105051 
C    -1.9313069   -2.4261751    0.5082827 
C    -2.0704039   -2.3570417   -0.8907069 
H    -1.3882115   -1.7149717   -1.4599211 
C    -3.0684684   -3.0928864   -1.5459028 
H    -3.1682982   -3.0270971   -2.6343689 
C    -3.9308479   -3.9132420   -0.8043802 
H    -4.7119229   -4.4888751   -1.3116845 
C    -3.7807375   -4.0102469    0.5889140 
H    -4.4399194   -4.6661592    1.1670185 
C    -2.7814694   -3.2791604    1.2447600 
H    -2.6481751   -3.3879779    2.3261382 
C     0.1900872   -2.7038185    2.4071523 
C     0.3391565   -4.0288284    1.9456498 
H    -0.0245929   -4.3098427    0.9510886 
C     0.9212861   -5.0012209    2.7703852 
H     1.0162097   -6.0308879    2.4098295 
C     1.3733544   -4.6584923    4.0534282 
H     1.8233319   -5.4201849    4.6984481 
C     1.2507803   -3.3366046    4.5058111 
H     1.6114375   -3.0602141    5.5016755 
C     0.6627385   -2.3612307    3.6894821 
H     0.5621253   -1.3367486    4.0597739 
H    -3.1561976   -0.0342685   -0.3707195 
H     0.1294891    1.1529184    2.9091822 
C     0.5757523    3.1534118   -0.3399480 
C    -1.3045759    1.9764169   -2.5915326 
C     0.8457571    3.0491573    1.1773893 
H     1.5667347    3.8352930    1.4672095 
H    -0.0623313    3.1709719    1.7858563 
H     1.2949742    2.0701239    1.4222304 
C     1.9333563    2.9510836   -1.0505134 
H     2.6387211    3.7253120   -0.6970805 
H     2.3604107    1.9643165   -0.7997636 
H     1.8680376    3.0302739   -2.1440956 
C     0.0158789    4.5500349   -0.6828428 
H     0.7108180    5.3148739   -0.2893264 
H    -0.0633604    4.7087834   -1.7692967 
H    -0.9729662    4.7377837   -0.2379352 
C    -1.7757187    0.5915992   -3.0871302 
H    -2.1817757    0.6916054   -4.1105682 
H    -0.9365184   -0.1240651   -3.1204658 
H    -2.5737089    0.1715497   -2.4539232 
C    -2.5025137    2.9505597   -2.5800524 
H    -2.2335580    3.9415238   -2.1821530 
H    -2.8493316    3.0901074   -3.6208038 
H    -3.3490902    2.5615655   -1.9924288 
C    -0.2258750    2.4963421   -3.5625211 
H    -0.6322055    2.4611617   -4.5895260 
H     0.0543419    3.5412620   -3.3581552 
H     0.6812642    1.8756186   -3.5491848 
