142
Energy =
C     2.9312887    1.8200212   -1.4178765 
C     3.4058003    0.5150869   -1.0901463 
C     2.9770188   -0.6423899   -1.7756613 
H     4.0212870    0.3953595   -0.1899731 
Pd    1.2227277    0.5138697   -0.7804167 
P     0.0789273   -1.3499364    0.0996182 
P    -0.3840250    2.1183271   -0.2729224 
H     2.6537561    2.0177281   -2.4638618 
H     2.5122570   -0.5001729   -2.7636456 
C     4.0525370    5.2827971    0.8908116 
C     3.8908307    4.0403395    1.5257886 
C     3.5356126    2.9136854    0.7780218 
C     3.3160448    3.0015285   -0.6173433 
C     3.4816623    4.2566710   -1.2405999 
C     3.8531379    5.3828746   -0.4936108 
H     4.3167292    6.1699716    1.4737806 
H     4.0308535    3.9491990    2.6073768 
H     3.4193195    1.9499844    1.2865952 
H     3.3207263    4.3511006   -2.3188798 
H     3.9738023    6.3479258   -0.9960000 
C     4.2915957   -4.6648060   -1.0241157 
C     3.4170104   -4.3846959   -2.0846094 
C     2.9980558   -3.0707582   -2.3164834 
C     3.4304689   -2.0100031   -1.4863376 
C     4.3174929   -2.3102069   -0.4253628 
C     4.7435197   -3.6212828   -0.1993272 
H     4.6240680   -5.6916141   -0.8406686 
H     3.0661714   -5.1896000   -2.7384822 
H     2.3307224   -2.8586603   -3.1565581 
H     4.6836123   -1.5162049    0.2307246 
H     5.4230881   -3.8323707    0.6323704 
Fe   -4.4560556    0.0848106   -1.9465193 
C    -2.4939905    0.6696259   -1.6484468 
C    -2.8384686   -0.4530757   -0.7936063 
C    -3.2911750   -1.5246229   -1.6494579 
H    -3.6227489   -2.5015528   -1.2982549 
C    -3.2032291   -1.0943054   -3.0110516 
H    -3.4878186   -1.6776662   -3.8883470 
C    -2.7237135    0.2550689   -3.0121606 
H    -2.5748890    0.8845232   -3.8928211 
C    -5.7780422    1.6264601   -2.2885906 
H    -5.5462650    2.6548894   -2.5679997 
C    -5.9352362    1.1219897   -0.9542339 
H    -5.8507613    1.7018329   -0.0331722 
C    -6.2599535   -0.2740539   -1.0442820 
H    -6.4383891   -0.9532701   -0.2086143 
C    -6.3018067   -0.6293856   -2.4328511 
H    -6.4984104   -1.6258522   -2.8331455 
C    -6.0018129    0.5448056   -3.2016379 
H    -5.9357158    0.5999397   -4.2898479 
C    -2.6284556   -0.6065598    0.6731870 
C    -1.3741121   -1.0299163    1.2060822 
C    -1.2304118   -1.1803684    2.6008421 
H    -0.2646867   -1.4801786    3.0180801 
C    -2.3106528   -0.9559961    3.4653909 
H    -2.1755354   -1.0748448    4.5451536 
C    -3.5542692   -0.5804836    2.9440940 
H    -4.4031948   -0.4041304    3.6106501 
C    -3.6991660   -0.4014120    1.5629063 
H    -4.6566959   -0.0870608    1.1428933 
C     1.3136412   -2.1905510    1.1784212 
C     1.4785908   -3.5861852    1.2011835 
H     0.8697929   -4.2254253    0.5565703 
C     2.4577193   -4.1893638    2.0078592 
C     3.2887326   -3.3580671    2.7909239 
C     3.1721063   -1.9488886    2.7672793 
C     2.1736949   -1.3870110    1.9566822 
H     2.0820756   -0.2961106    1.9128128 
C    -0.5049105   -2.6039989   -1.0891722 
C    -1.2140213   -3.7446012   -0.6594014 
H    -1.4387705   -3.8827112    0.4044832 
C    -1.6684530   -4.6972945   -1.5823000 
C    -1.4132426   -4.4727420   -2.9581556 
C    -0.7002345   -3.3419908   -3.4144546 
C    -0.2601805   -2.4134942   -2.4566076 
H     0.2634629   -1.5091054   -2.7864324 
C    -0.7100031    2.1516492    1.5427610 
C    -1.9572718    2.3817692    2.1474811 
H    -2.8551385    2.5289411    1.5525689 
C    -2.0694574    2.4011315    3.5440558 
C    -0.9489262    2.1993929    4.3605774 
H    -1.0455338    2.2046895    5.4497655 
C     0.2946036    1.9707438    3.7586113 
C     0.4143055    1.9497827    2.3636538 
H     1.3925456    1.7832429    1.9063130 
C     0.0988652    3.8735513   -0.6090684 
C     0.2472908    4.2846098   -1.9473010 
H     0.1100648    3.5781206   -2.7728006 
C     0.5774858    5.6116554   -2.2507720 
C     0.7994838    6.5418435   -1.2275121 
H     1.0729367    7.5728346   -1.4664062 
C     0.7043854    6.1197296    0.1047968 
C     0.3483659    4.8006964    0.4179637 
H     0.2796243    4.5076573    1.4677712 
C    -1.9719355    2.0514511   -1.2994323 
H    -1.5438428    2.4306993   -2.2448662 
C    -3.0411378    3.0736610   -0.8573862 
H    -3.6414975    3.3558478   -1.7346001 
H    -3.7275727    2.6280621   -0.1240034 
H    -2.5937364    3.9920266   -0.4399216 
C     0.8059236    6.0052543   -3.6934609 
F     0.5703501    7.3144216   -3.9051310 
F     2.0962597    5.7626045   -4.0582562 
F     0.0199673    5.2925030   -4.5353416 
C     0.9798842    7.1098568    1.2176372 
F     1.2915776    6.4822980    2.3766240 
F     2.0155157    7.9242528    0.8999974 
F    -0.0923542    7.8977242    1.4571724 
C    -3.4171266    2.6451990    4.1906913 
F    -3.6379422    1.7668253    5.2000952 
F    -3.4972664    3.8867960    4.7147784 
F    -4.4333809    2.5094443    3.3024734 
C     1.4916725    1.6344200    4.6158049 
F     2.6609596    1.9495319    3.9966431 
F     1.4667136    2.2672729    5.8028311 
F     1.5337424    0.2963717    4.8713816 
C     2.6622681   -5.6849834    2.0066033 
H     2.1943745   -6.1532400    2.8928013 
H     2.2166380   -6.1433019    1.1092210 
H     3.7369532   -5.9281824    2.0414778 
C     4.1404687   -1.0942065    3.5493058 
H     5.1486557   -1.5397475    3.5265598 
H     4.1836705   -0.0698324    3.1467631 
H     3.8374597   -1.0115291    4.6083255 
C    -2.4158604   -5.9361393   -1.1494121 
H    -3.4750226   -5.8963377   -1.4642776 
H    -1.9809218   -6.8357288   -1.6167835 
H    -2.3929139   -6.0516786   -0.0539685 
C    -0.4271228   -3.1384636   -4.8858110 
H    -1.2336371   -2.5516981   -5.3651982 
H     0.5131360   -2.5830771   -5.0416312 
H    -0.3607457   -4.1065725   -5.4079083 
O     4.3277524   -3.9309310    3.4916329 
O    -1.8363988   -5.4271306   -3.8573752 
C     4.0593542   -4.2642140    4.8617312 
H     4.9844372   -4.7070528    5.2594980 
H     3.7988413   -3.3644933    5.4503674 
H     3.2353636   -4.9982675    4.9402936 
C    -3.0837019   -5.1575511   -4.5106945 
H    -3.2991098   -6.0315082   -5.1430694 
H    -3.8999054   -5.0248248   -3.7746058 
H    -3.0228734   -4.2533104   -5.1461712 
