134
Energy =
C    -2.2551387    0.4658701   -2.5191498 
C    -1.4963798   -0.6471237   -2.9716950 
C    -1.6340109   -1.9250901   -2.3793693 
H    -0.7103533   -0.4880093   -3.7203954 
Pd   -0.9716059   -0.3580052   -0.8362851 
P     0.4341560   -1.8384065    0.2978773 
P    -1.1555762    1.5624492    0.5393258 
H    -3.2241613    0.2558494   -2.0453764 
H    -2.5472181   -2.1088533   -1.7926326 
C    -1.9426236    4.4389240   -4.1439657 
C    -0.8465492    3.5643913   -4.2332807 
C    -0.9320861    2.2727022   -3.7073428 
C    -2.1151561    1.8236275   -3.0747355 
C    -3.2090258    2.7134726   -2.9946733 
C    -3.1252302    4.0055779   -3.5276001 
H    -1.8738566    5.4504509   -4.5572730 
H     0.0806250    3.8959438   -4.7124092 
H    -0.0629730    1.6094162   -3.7756030 
H    -4.1333003    2.3809743   -2.5105594 
H    -3.9890445    4.6752758   -3.4622484 
C     0.3470368   -5.5522516   -3.5652206 
C    -0.7391264   -5.5813226   -2.6791039 
C    -1.3634809   -4.3895970   -2.2937042 
C    -0.9252875   -3.1436189   -2.7979476 
C     0.1598858   -3.1337030   -3.7070661 
C     0.7929735   -4.3219201   -4.0782299 
H     0.8400349   -6.4831368   -3.8642802 
H    -1.1000237   -6.5344908   -2.2799296 
H    -2.1979506   -4.4178891   -1.5844720 
H     0.5140258   -2.1899474   -4.1306585 
H     1.6357877   -4.2912481   -4.7764645 
Fe    3.3949700    0.7651095    2.8967929 
C     1.9252880    0.0128927    1.7189346 
C     1.5139825    1.2958691    2.2666336 
C     2.5015871    2.2736685    1.8789185 
H     2.4673682    3.3313222    2.1412882 
C     3.4816657    1.6286467    1.0595550 
H     4.3591085    2.1037749    0.6174687 
C     3.1378368    0.2406699    0.9628302 
H     3.7148308   -0.5262488    0.4440857 
C     3.4051657    0.1659470    4.8590245 
H     2.5431408   -0.0654222    5.4874917 
C     4.0328559    1.4513007    4.7184104 
H     3.7303484    2.3771136    5.2117419 
C     5.1362475    1.3074592    3.8121702 
H     5.8043354    2.1053456    3.4829320 
C     5.1891007   -0.0642893    3.3902894 
H     5.9022300   -0.4897109    2.6816182 
C     4.1176734   -0.7688141    4.0355175 
H     3.8809157   -1.8281942    3.9157830 
C     0.2726375    1.6020607    3.0250551 
C    -1.0025157    1.6448133    2.3922109 
C    -2.1535372    1.8628594    3.1790249 
H    -3.1388905    1.8928282    2.7072703 
C    -2.0580981    2.0754816    4.5606675 
H    -2.9678856    2.2402256    5.1470512 
C    -0.7995740    2.1066743    5.1728131 
H    -0.7080971    2.3022587    6.2462572 
C     0.3466003    1.8716727    4.4043921 
H     1.3355486    1.8724012    4.8672015 
C    -0.4583514   -3.3926294    0.6999090 
C    -1.7842622   -3.2252151    1.1578782 
H    -2.2001112   -2.2130098    1.2456526 
C    -2.5849128   -4.3308527    1.4843652 
C    -2.0316784   -5.6200628    1.3346085 
H    -2.6500720   -6.4946391    1.5709402 
C    -0.7182825   -5.8173915    0.8755574 
C     0.0626968   -4.6877302    0.5559132 
H     1.0645985   -4.8390237    0.1462800 
C     1.8969038   -2.2001731   -0.7550209 
C     2.8992291   -3.1218185   -0.3929218 
H     2.8069612   -3.7142055    0.5240252 
C     4.0561611   -3.2756631   -1.1792641 
C     4.2008692   -2.4706094   -2.3266014 
H     5.1051013   -2.5768409   -2.9386239 
C     3.2277309   -1.5270729   -2.7015321 
C     2.0814140   -1.4039349   -1.8986125 
H     1.3147030   -0.6614086   -2.1530928 
C     1.2801571   -1.3380253    1.9153929 
H     2.0963061   -2.0766107    2.0106392 
C     0.3535191   -1.4842175    3.1304917 
H     0.8572658   -1.0678438    4.0179186 
H    -0.5983389   -0.9448900    3.0034105 
H     0.1260868   -2.5464663    3.3140844 
C     5.1154116   -4.2907263   -0.8104732 
C     3.3880956   -0.6898934   -3.9509607 
C    -3.9999634   -4.1491956    1.9875312 
C    -0.1424441   -7.2073684    0.7195037 
C    -5.5600842    2.9354628    0.0231467 
C    -4.5559186    3.9125853   -0.0663914 
C    -3.2089155    3.5133786    0.0719923 
C    -2.8821161    2.1704865    0.3027682 
C    -3.9122226    1.2068088    0.3813011 
C    -5.2599318    1.5735261    0.2453095 
H    -6.6084707    3.2365413   -0.0919211 
H    -2.4191954    4.2626676   -0.0316630 
H    -3.6553795    0.1523638    0.5507297 
C     1.8382496    4.7998437   -0.8372839 
C     0.9383466    5.1238168    0.2023576 
C     0.0218033    4.1466728    0.6208923 
C    -0.0111963    2.8836869   -0.0074875 
C     0.9016621    2.5858772   -1.0271801 
C     1.8451089    3.5392757   -1.4542314 
H     2.5685687    5.5528357   -1.1585555 
H    -0.6484146    4.3590764    1.4615148 
H     0.8998689    1.5799048   -1.4623747 
H    -4.3565370   -3.1174045    1.8286543 
H    -4.6976593   -4.8393875    1.4820928 
H    -4.0597984   -4.3615794    3.0711190 
H     0.5180793   -7.2681479   -0.1625523 
H     0.4631974   -7.4808701    1.6039037 
H    -0.9357443   -7.9657979    0.6142232 
H     5.0355710   -4.5946360    0.2464652 
H     5.0112620   -5.2018624   -1.4291054 
H     6.1305305   -3.8940070   -0.9823299 
H     2.7198322    0.1874875   -3.9363743 
H     4.4249391   -0.3321962   -4.0708183 
H     3.1421230   -1.2840099   -4.8515944 
C    -4.8900002    5.3674515   -0.3084078 
H    -4.2231751    5.8039604   -1.0723904 
H    -5.9329373    5.4958998   -0.6409212 
H    -4.7562125    5.9584234    0.6167441 
C    -6.3652632    0.5440857    0.3292260 
H    -7.0544281    0.7710430    1.1625834 
H    -6.9692152    0.5333533   -0.5959599 
H    -5.9624230   -0.4704271    0.4870146 
C     0.9751711    6.4905907    0.8497959 
H     0.6518538    7.2714781    0.1369509 
H     0.3126671    6.5398492    1.7294592 
H     1.9985243    6.7516904    1.1731002 
C     2.8423863    3.1838968   -2.5335083 
H     2.3287863    2.9507840   -3.4845267 
H     3.5498819    4.0070184   -2.7240449 
H     3.4228248    2.2879939   -2.2476822 
