122
Energy =
C     3.2725680    1.0153627   -0.8614403 
C     2.5293858    2.2177458   -0.8714660 
C     1.9935530    2.7693082    0.3180122 
H     2.3019692    2.6992059   -1.8295596 
Pd    1.0847622    0.6943730   -0.1071788 
P    -1.0094938    0.9473940    0.9441120 
P     1.3040225   -1.6759593   -0.2169644 
H     3.7026307    0.7003469    0.0986964 
H     2.4173272    2.3974220    1.2624637 
C     5.1998784   -0.7916500   -4.2571320 
C     5.4457360   -1.2567670   -2.9573488 
C     4.8187568   -0.6497373   -1.8635992 
C     3.9150453    0.4219320   -2.0453091 
C     3.6898897    0.8903479   -3.3620795 
C     4.3283509    0.2933877   -4.4522514 
H     5.6914383   -1.2630452   -5.1142280 
H     6.1351404   -2.0913516   -2.7929149 
H     5.0287629   -1.0046637   -0.8505047 
H     3.0021192    1.7232648   -3.5420359 
H     4.1441982    0.6726716   -5.4628695 
C     0.4197887    6.7562577    0.7148830 
C     0.7522549    5.9978292    1.8474705 
C     1.2423355    4.6952107    1.6992116 
C     1.3965145    4.1118714    0.4183767 
C     1.0491444    4.8883448   -0.7120968 
C     0.5771638    6.1964604   -0.5641750 
H     0.0470602    7.7794855    0.8254093 
H     0.6451518    6.4280154    2.8485455 
H     1.5296675    4.1202907    2.5856664 
H     1.1563303    4.4741813   -1.7195466 
H     0.3253471    6.7838836   -1.4529590 
Fe   -3.3639070   -1.9274467   -2.1602906 
C    -2.1048630   -0.8174024   -1.0031478 
C    -1.6103047   -2.1768891   -1.1307752 
C    -1.4538194   -2.4568611   -2.5388853 
H    -1.0982500   -3.4003904   -2.9543806 
C    -1.7989805   -1.2788359   -3.2752827 
H    -1.7942909   -1.1798214   -4.3621286 
C    -2.2011987   -0.2730764   -2.3370648 
H    -2.5644437    0.7248576   -2.5894437 
C    -5.3154308   -1.5044621   -1.6988437 
H    -5.6767813   -0.6787015   -1.0825165 
C    -4.9708053   -2.8193945   -1.2381073 
H    -5.0393881   -3.1749768   -0.2083757 
C    -4.5385759   -3.5903204   -2.3703952 
H    -4.1987014   -4.6275363   -2.3531362 
C    -4.6260070   -2.7536595   -3.5325267 
H    -4.3497703   -3.0375605   -4.5496809 
C    -5.1032182   -1.4645077   -3.1176831 
H    -5.2560963   -0.5991924   -3.7654095 
C    -1.1648978   -3.0643435   -0.0249694 
C     0.1301360   -2.8973296    0.5387180 
C     0.5354077   -3.7169390    1.6114687 
H     1.5269984   -3.5857006    2.0540571 
C    -0.3195153   -4.7038902    2.1202205 
H     0.0097281   -5.3277642    2.9574682 
C    -1.5816461   -4.8982016    1.5426478 
H    -2.2482521   -5.6797792    1.9215336 
C    -1.9918023   -4.0853655    0.4777689 
H    -2.9757204   -4.2166370    0.0212211 
C    -2.4757075   -0.0655842    0.2512065 
H    -3.1492367    0.7412953   -0.0852003 
C    -3.2621151   -0.8715226    1.2998250 
H    -4.1728561   -1.2616190    0.8215565 
H    -2.6996533   -1.7311958    1.6893479 
H    -3.5650347   -0.2358502    2.1476994 
C     5.2400943   -2.4729979    2.1887258 
C     4.3591136   -1.4467247    2.5630012 
C     3.1897716   -1.2246457    1.8236321 
C     2.8757735   -2.0263952    0.7045619 
C     3.7689790   -3.0522430    0.3361503 
C     4.9421798   -3.2708093    1.0741014 
H     6.1578275   -2.6459841    2.7600221 
H     4.5835134   -0.8135149    3.4277673 
H     2.5166578   -0.4075953    2.1094600 
H     3.5680358   -3.6698079   -0.5427617 
H     5.6295106   -4.0669214    0.7695433 
C     1.8336368   -3.4589393   -4.4779086 
C     1.7774997   -4.3194706   -3.3690987 
C     1.6228772   -3.7948688   -2.0793369 
C     1.5353405   -2.3983087   -1.8914125 
C     1.5617379   -1.5460623   -3.0077238 
C     1.7192152   -2.0736286   -4.2958061 
H     1.9527273   -3.8721520   -5.4849654 
H     1.8443017   -5.4033754   -3.5099059 
H     1.5377616   -4.4732563   -1.2234619 
H     1.4281669   -0.4703418   -2.8639928 
H     1.7438758   -1.3992390   -5.1573033 
H    -1.9084780    0.7306727    3.2017701 
C     0.1700685    1.4377825    4.9691509 
C     0.0217401    1.6830629    3.4566048 
C    -0.8864857    0.6242931    2.7921989 
C    -0.3738961   -0.7948793    3.1057812 
C    -0.2251789   -1.0335467    4.6171465 
C     0.6851612    0.0207677    5.2645754 
H    -0.8148186    1.5795435    5.4554877 
H     0.8465799    2.1976205    5.4008552 
H     1.0208103    1.6367235    2.9787474 
H    -0.3687011    2.6999541    3.2793873 
H    -1.0332888   -1.5583535    2.6683940 
H     0.6098482   -0.9287844    2.6216179 
H    -1.2250940   -0.9998969    5.0926366 
H     0.1709614   -2.0511047    4.7865719 
H     1.7123548   -0.0870437    4.8607539 
H     0.7555776   -0.1434275    6.3544686 
H    -0.9115890    3.3391987    1.2129003 
C    -3.5057324    4.3397696    1.5763579 
C    -2.9721823    2.9007587    1.7125850 
C    -1.7181732    2.6850228    0.8351760 
C    -1.9803256    3.0799356   -0.6355179 
C    -2.5486677    4.5053902   -0.7530188 
C    -3.8054572    4.6871490    0.1107480 
H    -2.7481480    5.0440921    1.9725987 
H    -4.4097673    4.4573631    2.2004845 
H    -3.7703075    2.1947321    1.4090038 
H    -2.7458727    2.6889774    2.7724280 
H    -1.0462704    2.9780256   -1.2190815 
H    -2.7115986    2.3805125   -1.0834200 
H    -1.7798612    5.2273706   -0.4266004 
H    -2.7662719    4.7272867   -1.8136616 
H    -4.6154556    4.0296203   -0.2639043 
H    -4.1778772    5.7238783    0.0298026 
