112
Energy =
C     2.5864581   -1.6197011   -1.7984216 
C     2.5689759   -0.2937138   -2.3092347 
C     2.8739632    0.8184189   -1.4846088 
H     2.1849008   -0.1191372   -3.3215176 
Pd    1.0851178   -0.3622414   -0.6767454 
P    -0.1779569    1.2587630    0.4526907 
P    -0.1790015   -2.1948818   -0.0081840 
H     3.2385349   -1.8107623   -0.9342438 
H     3.4710652    0.6154017   -0.5825830 
C     1.6965516   -5.1666224   -4.0704416 
C     2.3949079   -5.2482823   -2.8562440 
C     2.6610519   -4.0878830   -2.1186405 
C     2.2325120   -2.8208356   -2.5785181 
C     1.5015478   -2.7593726   -3.7880264 
C     1.2477931   -3.9171447   -4.5292844 
H     1.4975737   -6.0711654   -4.6544527 
H     2.7442469   -6.2176014   -2.4856194 
H     3.2172965   -4.1576879   -1.1776984 
H     1.1177965   -1.8002796   -4.1504509 
H     0.6847163   -3.8467901   -5.4653471 
C     3.0651920    4.9361764   -2.7386097 
C     3.5984806    4.5337683   -1.5048131 
C     3.5298736    3.1910759   -1.1152901 
C     2.9100150    2.2202899   -1.9377264 
C     2.3814554    2.6423848   -3.1800924 
C     2.4679075    3.9807962   -3.5776025 
H     3.1251407    5.9834557   -3.0514205 
H     4.0828819    5.2655211   -0.8499933 
H     3.9738666    2.8806801   -0.1638196 
H     1.8988530    1.9211888   -3.8472486 
H     2.0648157    4.2826580   -4.5497372 
Fe   -3.3062173    0.6242538    2.1964713 
C    -1.9015280    0.6938963    0.7138792 
C    -2.3069904   -0.6819532    1.0049134 
C    -3.7273551   -0.7767606    0.7834921 
C    -4.2162164    0.5046752    0.3798775 
C    -3.1105814    1.4117799    0.3465895 
C    -4.2818623   -0.0731006    3.8423913 
C    -2.9102638    0.2046387    4.1621844 
C    -2.6678808    1.5945322    3.8915062 
C    -3.8830527    2.1746469    3.3994038 
C    -4.8828776    1.1442200    3.3717275 
C    -1.4167526   -1.8356860    1.3834912 
H    -4.3371703   -1.6688654    0.9267467 
H    -5.2571168    0.7594911    0.1736935 
H    -3.1795031    2.4673131    0.0899915 
H    -4.7804364   -1.0402541    3.9299803 
H    -2.1858546   -0.5122232    4.5540413 
H    -1.7257072    2.1226275    4.0400945 
H    -4.0214160    3.2131420    3.0934276 
H    -5.9138511    1.2594033    3.0323312 
H    -0.7329869   -1.5207339    2.1886836 
C    -2.1963425   -3.0748390    1.8435970 
H    -2.9123403   -2.7791965    2.6303870 
H    -2.7620213   -3.5300560    1.0125074 
H    -1.5216617   -3.8347018    2.2668304 
H     0.7784713    3.0686677   -0.7356293 
C    -0.9390387    5.3043625   -0.6556260 
C    -0.8664736    4.0568101    0.2444017 
C    -0.2867712    2.8475972   -0.5268084 
C    -0.9630531    2.5916988   -1.8967060 
C    -1.0721364    3.8786215   -2.7334526 
C    -1.7281268    5.0207909   -1.9429229 
H     0.0893950    5.6185679   -0.9211464 
H    -1.3930588    6.1384503   -0.0910136 
H    -1.8747147    3.8281804    0.6340042 
H    -0.2382367    4.2733060    1.1264033 
H    -0.3808270    1.8239310   -2.4411288 
H    -1.9731016    2.1688893   -1.7533315 
H    -0.0598241    4.1961977   -3.0411135 
H    -1.6375809    3.6658618   -3.6586485 
H    -2.7717739    4.7493701   -1.6848768 
H    -1.7849386    5.9310464   -2.5659765 
H    -0.1676444    2.4932802    2.5212291 
C     2.5241535    2.7829628    3.3110110 
C     1.9297118    2.3880229    1.9466695 
C     0.5374330    1.7467208    2.1085631 
C     0.6009553    0.5443871    3.0689178 
C     1.1977349    0.9386933    4.4310028 
C     2.5838490    1.5830027    4.2696734 
H     1.9010027    3.5817850    3.7586051 
H     3.5310296    3.2140018    3.1649086 
H     2.5953074    1.6526602    1.4538313 
H     1.8848328    3.2696846    1.2843286 
H    -0.4131520    0.1307321    3.1959216 
H     1.2260254   -0.2473105    2.6081132 
H     0.5173047    1.6543518    4.9333086 
H     1.2538201    0.0487132    5.0832938 
H     3.2905002    0.8297411    3.8673134 
H     2.9802623    1.8947627    5.2521104 
C    -2.7171942   -3.5711398   -3.6497395 
C    -1.7828265   -4.4638693   -3.1093657 
C    -1.0033384   -4.0949949   -2.0034417 
C    -1.1648207   -2.8257994   -1.4153792 
C    -2.0800846   -1.9115931   -1.9920247 
C    -2.8554988   -2.2887850   -3.0942529 
H    -3.3242613   -3.8646640   -4.5123851 
H    -1.6400101   -5.4523346   -3.5574684 
H    -0.2442965   -4.7881924   -1.6346925 
H    -2.1779196   -0.9001025   -1.5853361 
H    -3.5649781   -1.5745723   -3.5249896 
C     2.5340927   -5.4082126    1.9907490 
C     2.9100637   -4.0575162    1.9393077 
C     2.0755508   -3.1234433    1.3118841 
C     0.8528696   -3.5225604    0.7296290 
C     0.4657805   -4.8769299    0.8225012 
C     1.3095165   -5.8122166    1.4380991 
H     3.1893702   -6.1432403    2.4692506 
H     3.8562506   -3.7310597    2.3830276 
H     2.3731763   -2.0687336    1.2641026 
H    -0.4948187   -5.2091360    0.4205035 
H     1.0034934   -6.8621710    1.4904765 
