124
Energy =
C     1.2972668   -3.2016974    0.0230693 
C     2.1870784   -2.4709016   -0.8140838 
C     3.1086602   -1.5418338   -0.2703517 
H     2.0663717   -2.5210302   -1.9036946 
Pd    0.9621410   -0.9902220    0.2473548 
P     1.1329569    1.3505841    0.1111811 
P    -1.2533757   -0.8582119    0.9616578 
H     1.6179293   -3.3893307    1.0577484 
H     3.4047040   -1.6911063    0.7792396 
C    -1.7602558   -5.9057620   -1.3528541 
C    -1.2141118   -4.9642297   -2.2415249 
C    -0.2258212   -4.0731725   -1.8096501 
C     0.2554066   -4.1157164   -0.4791342 
C    -0.2881669   -5.0834164    0.3957382 
C    -1.2910101   -5.9608500   -0.0325422 
H    -2.5391099   -6.5961487   -1.6923612 
H    -1.5605527   -4.9270966   -3.2800068 
H     0.1665340   -3.3305346   -2.5130743 
H     0.0880196   -5.1468748    1.4215986 
H    -1.7027077   -6.6939236    0.6684555 
C     5.8999416    0.8435043   -2.5087245 
C     4.7130199    0.4096988   -3.1223823 
C     3.7882537   -0.3567495   -2.4069980 
C     4.0301542   -0.7060322   -1.0578146 
C     5.2179524   -0.2440129   -0.4481040 
C     6.1465315    0.5161515   -1.1677557 
H     6.6238244    1.4411283   -3.0723084 
H     4.5068163    0.6719194   -4.1653586 
H     2.8646315   -0.6746935   -2.8999198 
H     5.4136427   -0.4916593    0.6005863 
H     7.0627335    0.8596909   -0.6769603 
Fe   -2.5789416    1.8012653    3.0635581 
C    -1.3448554    0.3842307    2.2882534 
C    -0.6740404    1.6791039    2.3238346 
C    -0.6691482    2.1173089    3.6974155 
C    -1.3123609    1.1234031    4.5038058 
C    -1.7398319    0.0615997    3.6468177 
C    -4.3842417    1.8136197    2.0894972 
C    -4.5645212    1.5848472    3.4928864 
C    -4.0057568    2.7033899    4.1998540 
C    -3.4761410    3.6233021    3.2318123 
C    -3.7106336    3.0736972    1.9266330 
C    -0.0710688    2.4239140    1.1567588 
H    -0.2702024    3.0636341    4.0644747 
H    -1.4849070    1.1851984    5.5795852 
H    -2.2667114   -0.8418681    3.9539713 
H    -4.6896161    1.1397675    1.2873315 
H    -5.0268647    0.7055836    3.9448247 
H    -3.9677942    2.8221823    5.2842746 
H    -2.9766405    4.5685555    3.4522264 
H    -3.4371700    3.5434132    0.9791415 
H    -0.8610076    2.6012658    0.4084688 
C     0.5249682    3.7800392    1.5634965 
H    -0.2661851    4.4032861    2.0164341 
H     1.3416272    3.6641538    2.2943234 
H     0.9379286    4.3211430    0.6983352 
C     5.3513309    3.1623491    0.9569451 
C     4.7176745    3.3704858   -0.2795903 
C     3.4574581    2.8211424   -0.5411970 
C     2.7914293    2.0549915    0.4326363 
C     3.4224720    1.8033337    1.6837355 
C     4.6864074    2.3701059    1.9138187 
H     5.2201681    3.9545389   -1.0581274 
H     2.9973918    2.9780268   -1.5209132 
H     5.1767632    2.1774192    2.8761346 
C    -0.2714657    2.3634062   -4.1891809 
C    -0.0628529    3.4289933   -3.2963512 
C     0.4024631    3.1368181   -1.9985546 
C     0.6427679    1.8081153   -1.6022440 
C     0.4122974    0.7636818   -2.5193771 
C    -0.0346545    1.0235794   -3.8235586 
H    -0.6368514    2.5815608   -5.2000372 
H     0.5723178    3.9639927   -1.3014457 
H     0.5557757   -0.2735944   -2.1896630 
C     6.7116546    3.7481739    1.2566771 
H     7.1640217    4.2009715    0.3595709 
H     6.6403146    4.5322722    2.0330279 
H     7.4017342    2.9756546    1.6406188 
C     2.7732434    0.9512015    2.7519757 
H     3.4838493    0.7171081    3.5607640 
H     1.8994527    1.4513891    3.2064827 
H     2.3967362   -0.0022766    2.3303088 
C    -0.3293635    4.8617932   -3.7044735 
H    -0.6710219    4.9280109   -4.7499581 
H    -1.1042068    5.3190002   -3.0623305 
H     0.5813934    5.4791859   -3.6032418 
C    -0.2594677   -0.0984091   -4.8100008 
H    -1.2692489   -0.0410352   -5.2513438 
H     0.4689235   -0.0439196   -5.6399717 
H    -0.1572938   -1.0840724   -4.3272858 
C    -3.2803240   -4.6671460    2.7421137 
C    -3.9351693   -3.9045964    1.7919081 
C    -3.3201793   -2.7416946    1.2631781 
C    -2.0549023   -2.3421070    1.6861338 
H    -3.7471989   -5.5718682    3.1464258 
H    -4.9297099   -4.1928966    1.4373564 
H    -3.8543798   -2.1566777    0.5086875 
C    -1.3575541   -3.1041882    2.6908258 
C    -1.9880044   -4.2932853    3.2130610 
C    -1.2955948   -5.0812172    4.1799170 
C    -0.0369073   -4.7176275    4.6292793 
C     0.5726758   -3.5326803    4.1397278 
C    -0.0754942   -2.7438375    3.2021202 
H    -1.7805764   -5.9856755    4.5630008 
H     0.4844434   -5.3336271    5.3688502 
H     1.5590858   -3.2357247    4.5113414 
H     0.4065954   -1.8267512    2.8442769 
C    -2.4100207   -1.2927252   -1.5322991 
C    -2.2324537   -0.3683724   -0.5040753 
C    -2.6526873    0.9794168   -0.6855415 
C    -3.2133516    1.3864018   -1.8829489 
H    -2.0791734   -2.3298731   -1.4118013 
H    -2.5340637    1.6778828    0.1446290 
H    -3.5184490    2.4297445   -2.0178978 
C    -3.4142244    0.4641922   -2.9504868 
C    -3.0235002   -0.9113199   -2.7580810 
C    -3.2517452   -1.8496209   -3.8093698 
C    -3.8279609   -1.4468085   -5.0021676 
C    -4.1961847   -0.0864434   -5.1986513 
C    -3.9939918    0.8477405   -4.1949387 
H    -2.9633671   -2.8942516   -3.6536887 
H    -4.0008868   -2.1741586   -5.8020632 
H    -4.6474299    0.2187251   -6.1484421 
H    -4.2842708    1.8935688   -4.3432701 
