142
Energy =
C     3.1134208    0.1372265   -2.2382581 
C     3.5424786    0.7765774   -1.0657550 
C     3.7205287    0.0371381    0.1546138 
H     3.7157215    1.8602827   -1.0607238 
Pd    1.5703836    0.1055998   -0.2733146 
P     0.9654675   -1.1119028    1.5849752 
P    -0.4759453    0.4113141   -1.4640981 
H     3.0827020   -0.9623828   -2.2176431 
H     3.9648126   -1.0308388    0.0441575 
C     2.6153044    1.7616047   -6.1708944 
C     2.5755833    0.3747501   -5.9563061 
C     2.7431401   -0.1362425   -4.6656855 
C     2.9611686    0.7277445   -3.5633297 
C     3.0479727    2.1200924   -3.8082195 
C     2.8605710    2.6312315   -5.0937382 
H     2.4692575    2.1662299   -7.1777105 
H     2.4107344   -0.3076639   -6.7965534 
H     2.6966512   -1.2172040   -4.4958235 
H     3.2558653    2.8082203   -2.9860251 
H     2.8981880    3.7126095   -5.2588488 
C     5.4322076    1.9090960    3.6315117 
C     4.3609184    2.5264689    2.9652210 
C     3.7921553    1.9206873    1.8397945 
C     4.2780356    0.6801576    1.3649892 
C     5.3449749    0.0630888    2.0521904 
C     5.9206656    0.6776692    3.1717914 
H     5.8686014    2.3750342    4.5199751 
H     3.9640642    3.4785724    3.3319930 
H     2.9436672    2.3961496    1.3313942 
H     5.7240495   -0.9047864    1.7072453 
H     6.7454944    0.1855061    3.6968659 
Fe   -2.3176572   -4.3066681    0.2364115 
C    -1.1751995   -2.6701784    0.5955661 
C    -1.8140204   -2.5436119   -0.7117448 
C    -3.2403296   -2.6615705   -0.4970024 
H    -3.9910495   -2.6369901   -1.2881197 
C    -3.4942701   -2.7922225    0.9034298 
H    -4.4723244   -2.9080146    1.3732419 
C    -2.2325704   -2.8109114    1.5758512 
H    -2.1003114   -2.9612345    2.6468697 
C    -1.2314019   -5.9623322    0.7593369 
H    -0.2517572   -5.9725511    1.2421079 
C    -1.4755838   -5.9583120   -0.6548516 
H    -0.7130514   -5.9811176   -1.4359894 
C    -2.8974885   -5.9395878   -0.8605340 
H    -3.4128127   -5.9333915   -1.8229604 
C    -3.5295647   -5.9378404    0.4274608 
H    -4.6044593   -5.9083291    0.6146825 
C    -2.5003689   -5.9520580    1.4286002 
H    -2.6569629   -5.9325356    2.5088736 
C    -1.2563570   -2.3077554   -2.0806420 
C    -0.7122669   -1.0681703   -2.5429979 
C    -0.2387661   -0.9824325   -3.8702664 
H     0.2102177   -0.0512307   -4.2190371 
C    -0.3303109   -2.0592594   -4.7591593 
H     0.0488283   -1.9511966   -5.7806775 
C    -0.9193075   -3.2538760   -4.3319643 
H    -1.0229594   -4.1029430   -5.0153280 
C    -1.3689630   -3.3619640   -3.0116631 
H    -1.8217071   -4.2902534   -2.6589065 
C    -0.1693513    1.9001988   -2.5140755 
C    -0.8314421    2.1664853   -3.7259769 
H    -1.5079325    1.4233892   -4.1616258 
C    -0.6354650    3.3793282   -4.4074674 
C     0.1940838    4.3579026   -3.8104446 
C     0.8279356    4.1411136   -2.5675728 
C     0.6425539    2.8984970   -1.9434121 
H     1.1533057    2.6981405   -0.9906915 
C    -2.1495224    0.9214398   -0.8821255 
C    -2.2578922    2.1334837   -0.1660108 
H    -1.3550791    2.6717516    0.1467187 
C    -3.5056918    2.7303234    0.0626244 
C    -4.6650474    2.0409109   -0.3705570 
C    -4.5865616    0.8393012   -1.1051116 
C    -3.3113269    0.3142719   -1.3808890 
H    -3.2345297   -0.5580229   -2.0335231 
C     2.3272466   -1.5458769    2.7587710 
C     3.1734043   -2.6504683    2.5729346 
H     3.0431546   -3.3308252    1.7288155 
C     4.2097149   -2.9117662    3.4848967 
C     4.4058116   -2.0937528    4.6012340 
H     5.2093670   -2.3073311    5.3105742 
C     3.5695741   -0.9811679    4.7813518 
C     2.5542705   -0.6958413    3.8638501 
H     1.9352186    0.1904503    4.0230146 
C    -0.2762485   -0.5778841    2.8348702 
C    -0.5559577   -1.4428692    3.9088820 
H    -0.0515114   -2.4114298    3.9896129 
C    -1.4781808   -1.0734331    4.8942330 
C    -2.0859017    0.1873666    4.8537532 
H    -2.7794098    0.4885490    5.6432164 
C    -1.7755720    1.0641748    3.8045775 
C    -0.8896886    0.6819388    2.7840159 
H    -0.6643894    1.3694019    1.9658600 
C     0.2961414   -2.7718655    0.9309705 
H     0.3929691   -3.4678271    1.7841059 
C     1.1478770   -3.2775674   -0.2477463 
H     0.6934640   -4.2020805   -0.6379132 
H     1.1710716   -2.5399749   -1.0670726 
H     2.1880469   -3.4926788    0.0428930 
C    -1.8289904   -2.0841837    5.9641410 
F    -2.5580422   -1.5471833    6.9602272 
F    -2.5560103   -3.1027247    5.4232903 
F    -0.7185362   -2.6384014    6.5007576 
C    -2.4278880    2.4272879    3.7863407 
F    -1.7552186    3.2936909    2.9913405 
F    -3.7042507    2.3531565    3.3224867 
F    -2.4908670    2.9651043    5.0225924 
C     5.1764049   -4.0347252    3.1825684 
F     6.1287003   -3.6119795    2.3044470 
F     4.5517924   -5.0891144    2.6051241 
F     5.8118067   -4.4749663    4.2853600 
C     3.7517435   -0.1080572    6.0055170 
F     5.0631030    0.0745703    6.2921787 
F     3.1902249    1.1133221    5.8417216 
F     3.1796351   -0.6731890    7.0936866 
C    -1.2722013    3.6354633   -5.7528378 
H    -0.5968627    4.2294747   -6.3905843 
H    -1.5114925    2.6890551   -6.2640416 
H    -2.2148924    4.2048043   -5.6498843 
C     1.7391424    5.1945520   -1.9844628 
H     2.3067476    4.7989404   -1.1256775 
H     2.4481314    5.5611729   -2.7469026 
H     1.1693903    6.0740344   -1.6329998 
C    -3.6473663    4.1081855    0.6642388 
H    -2.6631986    4.5577900    0.8658928 
H    -4.2069880    4.7607683   -0.0282723 
H    -4.2123918    4.0856173    1.6103091 
C    -5.8358858    0.1617913   -1.6159509 
H    -6.6267445    0.9025947   -1.8166201 
H    -5.6300231   -0.4047911   -2.5395277 
H    -6.2313607   -0.5544473   -0.8703169 
O     0.4848828    5.5171729   -4.4967101 
O    -5.8896230    2.6338367   -0.1555111 
C    -0.4423016    6.6021761   -4.3391241 
H    -0.0409767    7.4392519   -4.9293267 
H    -1.4465379    6.3341790   -4.7166456 
H    -0.5260255    6.9046823   -3.2782189 
C    -6.5865704    2.1930615    1.0194721 
H    -5.9622553    2.3184239    1.9236367 
H    -7.4872664    2.8197667    1.0997150 
H    -6.8855110    1.1305870    0.9346315 
