124
Energy =
C     1.3497444   -3.2894548   -0.0368363 
C     2.2105399   -2.5823615   -0.9213877 
C     3.0938392   -1.5864331   -0.4342351 
H     2.0885922   -2.7063180   -2.0039922 
Pd    0.9240735   -1.0698266    0.0264892 
P     1.1011104    1.2632261   -0.1627439 
P    -1.2644923   -0.9901444    0.8569028 
H     1.6665587   -3.3729647    1.0125233 
H     3.3548827   -1.6380077    0.6329192 
C    -1.6067631   -6.2123023   -1.1573231 
C    -1.1590754   -6.1109551    0.1679229 
C    -0.1847733   -5.1667871    0.5113383 
C     0.3530178   -4.2897530   -0.4580265 
C    -0.0968293   -4.4143324   -1.7946790 
C    -1.0625053   -5.3663703   -2.1385996 
H    -2.3676040   -6.9512808   -1.4286871 
H    -1.5669741   -6.7712873    0.9398512 
H     0.1729675   -5.1056116    1.5437513 
H     0.3001157   -3.7528009   -2.5721497 
H    -1.3961237   -5.4481855   -3.1786199 
C     5.9251947    0.7314330   -2.6937228 
C     5.8526475    0.8459556   -1.2967782 
C     4.9189036    0.0896797   -0.5800709 
C     4.0222839   -0.7809207   -1.2436633 
C     4.0892499   -0.8637694   -2.6542144 
C     5.0410284   -0.1280981   -3.3665571 
H     6.6677529    1.3062037   -3.2567651 
H     6.5322426    1.5166991   -0.7612423 
H     4.8781788    0.1732479    0.5107149 
H     3.4038725   -1.5180147   -3.2014086 
H     5.0910808   -0.2209166   -4.4559815 
Fe   -2.6070573    1.8126991    2.7870011 
C    -1.3498974    0.3938085    2.0323453 
C    -0.8372786    1.7287600    1.7587517 
C    -0.6690030    2.3966059    3.0215839 
C    -1.0653443    1.4971914    4.0679418 
C    -1.4960887    0.2679742    3.4682598 
C    -3.9243720    2.7142116    4.0490715 
C    -3.6470375    3.5586543    2.9209016 
C    -4.0261343    2.8470439    1.7333339 
C    -4.5378010    1.5626159    2.1298131 
C    -4.4698769    1.4795260    3.5589767 
C    -0.4458021    2.2214635    0.3962303 
H    -0.3214897    3.4213219    3.1593828 
H    -1.0794591    1.7241518    5.1354086 
H    -1.8643522   -0.6131842    3.9943669 
H    -3.7292240    2.9585607    5.0948180 
H    -3.2143868    4.5600274    2.9600267 
H    -3.9459089    3.2287972    0.7138597 
H    -4.9066071    0.7797448    1.4649876 
H    -4.7670103    0.6223471    4.1655982 
H    -1.2029919    1.8788395   -0.3271801 
C    -0.3027778    3.7415960    0.2792123 
H    -1.2586696    4.2163391    0.5639420 
H     0.4866825    4.1303881    0.9432010 
H    -0.0614134    4.0337696   -0.7563388 
C     4.6194538    3.4554256    2.0244454 
C     4.0813366    3.9500215    0.8232746 
C     3.0249749    3.2868862    0.1914293 
C     2.4736250    2.1014704    0.7248347 
C     2.9672216    1.6126318    1.9694575 
C     4.0344409    2.3000407    2.5761376 
H     4.4907596    4.8616037    0.3742924 
H     2.6241575    3.7018239   -0.7371787 
H     4.4227742    1.9155621    3.5273153 
C     1.1308764    2.1093035   -4.7190667 
C    -0.0513364    1.7045115   -4.0746971 
C    -0.0078444    1.4747806   -2.6880086 
C     1.1881213    1.6449450   -1.9579988 
C     2.3710563    1.9956019   -2.6407234 
C     2.3467557    2.2534341   -4.0240549 
H     1.1058640    2.3158837   -5.7961285 
H    -0.9255217    1.1502870   -2.1847407 
H     3.3203496    2.0741162   -2.1029657 
C     5.7785223    4.1359575    2.7150813 
H     6.6531093    3.4622186    2.7700202 
H     6.0856074    5.0520530    2.1854309 
H     5.5157108    4.4089407    3.7528474 
C     2.3782064    0.4248775    2.6952798 
H     2.0534004   -0.3639320    1.9888154 
H     3.1040448   -0.0117156    3.4007470 
H     1.4795627    0.7188434    3.2666603 
C    -1.3404063    1.5044445   -4.8404935 
H    -1.2989399    1.9803331   -5.8338181 
H    -1.5405176    0.4272862   -4.9893993 
H    -2.2049704    1.9151468   -4.2914593 
C     3.5944640    2.6924310   -4.7579997 
H     3.8949749    1.9432065   -5.5127909 
H     3.4185323    3.6413165   -5.2956580 
H     4.4402939    2.8360953   -4.0677086 
C    -3.0563867   -4.7019898    3.0494197 
C    -3.7684921   -4.0558706    2.0546839 
C    -3.2199512   -2.9205736    1.4067330 
C    -1.9642337   -2.4294777    1.7575559 
H    -3.4727494   -5.5848089    3.5466524 
H    -4.7574416   -4.4173118    1.7559026 
H    -3.7965089   -2.4314368    0.6156384 
C    -1.2054822   -3.0741284    2.7974659 
C    -1.7681024   -4.2362930    3.4432429 
C    -1.0111857   -4.9065746    4.4499600 
C     0.2472884   -4.4582964    4.8160277 
C     0.7943004   -3.3040750    4.1960110 
C     0.0814689   -2.6280229    3.2184143 
H    -1.4453184   -5.7902659    4.9302288 
H     0.8181556   -4.9857540    5.5868248 
H     1.7836832   -2.9422237    4.4953270 
H     0.5126190   -1.7358969    2.7544706 
C    -3.1227349    0.4196800   -0.7631276 
C    -2.3653958   -0.7291015   -0.5796562 
C    -2.3260780   -1.7293160   -1.6013130 
C    -3.0510802   -1.5635578   -2.7652087 
H    -3.1453869    1.1749913    0.0263421 
H    -1.7273568   -2.6331035   -1.4517208 
H    -3.0269508   -2.3404764   -3.5374827 
C    -3.8281434   -0.3870228   -2.9909563 
C    -3.8561404    0.6301599   -1.9688292 
C    -4.6082948    1.8193566   -2.1998838 
C    -5.3029165    1.9979737   -3.3860088 
C    -5.2808787    0.9915528   -4.3890098 
C    -4.5609057   -0.1769183   -4.1940081 
H    -4.6325304    2.5925581   -1.4249851 
H    -5.8759609    2.9157698   -3.5527786 
H    -5.8375836    1.1437172   -5.3193527 
H    -4.5414211   -0.9518969   -4.9679822 
