124
Energy =
C     1.2327606    1.2287045   -2.8341030 
C     2.1179381    0.1718518   -2.4765290 
C     1.7135185   -1.1847534   -2.5138727 
H     3.0751190    0.4244010   -2.0053005 
Pd    0.3782371    0.0575312   -1.1325742 
P    -0.0516622   -1.5356880    0.5021892 
P    -0.9548356    1.7291106   -0.2143732 
H     0.4230600    0.9914520   -3.5402785 
H     0.8859599   -1.4466496   -3.1908572 
C     2.2501795    5.4082574   -2.7380540 
C     3.0359436    4.4856496   -2.0271296 
C     2.6984245    3.1292333   -2.0154998 
C     1.5816963    2.6591154   -2.7481129 
C     0.7905932    3.6008292   -3.4455758 
C     1.1171936    4.9621230   -3.4350370 
H     2.5192749    6.4694901   -2.7442302 
H     3.9133262    4.8279199   -1.4694595 
H     3.3093708    2.4367296   -1.4274160 
H    -0.0866409    3.2572421   -4.0035115 
H     0.4923031    5.6732529   -3.9852514 
C     4.0787714   -4.5604779   -1.2713018 
C     2.8491335   -4.7452895   -1.9202379 
C     2.0949704   -3.6374644   -2.3246493 
C     2.5423210   -2.3197339   -2.0699801 
C     3.7827078   -2.1489240   -1.4104573 
C     4.5442408   -3.2575512   -1.0287279 
H     4.6715053   -5.4223226   -0.9506223 
H     2.4814850   -5.7560069   -2.1255504 
H     1.1531642   -3.7927236   -2.8594980 
H     4.1597171   -1.1464180   -1.1868353 
H     5.5030667   -3.1083871   -0.5233392 
Fe   -2.8720770   -1.5042527    2.6544993 
C    -1.0575451   -1.0034129    1.9151802 
C    -1.9584616    0.1469659    1.9447040 
C    -2.3436965    0.3362757    3.3227393 
C    -1.7221283   -0.6750852    4.1257347 
C    -0.9335362   -1.5055360    3.2690318 
C    -4.6384399   -1.6283770    1.6333090 
C    -3.8369751   -2.7904450    1.3806551 
C    -3.5684413   -3.4309606    2.6380544 
C    -4.2081635   -2.6628869    3.6683413 
C    -4.8698193   -1.5492904    3.0481647 
C     1.6128594   -1.8155840    1.2516370 
C     2.3707631   -0.6455381    1.4515221 
C     3.6959152   -0.7282590    1.8975007 
C     4.2682860   -1.9698466    2.2008320 
C     3.5049697   -3.1323541    2.0191157 
C     2.1943219   -3.0653279    1.5251632 
C    -0.6854201   -3.1747532   -0.0171312 
C    -1.1242595   -3.3174942   -1.3418762 
C    -1.6186462   -4.5489611   -1.7968411 
C    -1.6612675   -5.6562902   -0.9405973 
C    -1.2323471   -5.5097501    0.3878865 
C    -0.7688030   -4.2734952    0.8575372 
C    -2.4022472    1.0057911    0.7814933 
H    -3.0219678    1.1041518    3.6947738 
H    -1.8542838   -0.8077763    5.2008060 
H    -0.3159911   -2.3496568    3.5815806 
H    -5.0004549   -0.9223654    0.8829762 
H    -3.4873286   -3.1248478    0.4026119 
H    -2.9983780   -4.3476605    2.7842302 
H    -4.1825498   -2.8778749    4.7380874 
H    -5.4305277   -0.7680511    3.5647970 
H     1.9411841    0.3377539    1.2242259 
H     1.6651932   -3.9992951    1.3267084 
H    -1.0802341   -2.4605901   -2.0221390 
H    -0.4740290   -4.1786609    1.9059912 
H    -2.8515974    0.3498189    0.0120083 
C    -3.4242423    2.0760931    1.1923171 
H    -4.2768109    1.5958945    1.7032939 
H    -2.9745826    2.8118880    1.8808471 
H    -3.8110641    2.6127913    0.3123222 
C     4.5212329    0.5381356    1.9096370 
F     4.7699123    0.9440486    0.6255149 
F     3.8722775    1.5625871    2.5128167 
F     5.7100172    0.3786149    2.5178169 
C     4.1243997   -4.4758344    2.3464687 
F     3.4200186   -5.4997272    1.8110201 
F     5.3932652   -4.5586043    1.8740223 
F     4.1824914   -4.6738637    3.6825084 
C    -2.0458708   -4.6568334   -3.2443335 
F    -2.6588351   -5.8224037   -3.5151903 
F    -2.8869452   -3.6471146   -3.5770482 
F    -0.9676975   -4.5535779   -4.0706163 
C    -1.2638167   -6.6828832    1.3466979 
F    -1.4155249   -7.8571031    0.7073119 
F    -0.1199421   -6.7375389    2.0704136 
F    -2.2868952   -6.5648427    2.2355133 
H     5.3050759   -2.0326749    2.5412043 
H    -2.0229828   -6.6221255   -1.3012927 
C    -3.2153336    3.9673964   -3.5692210 
C    -2.8448463    4.7076218   -2.4305195 
C    -2.1629026    4.0471590   -1.3910965 
C    -1.8299829    2.6850959   -1.5078193 
C    -2.2288399    1.9656395   -2.6523739 
C    -2.9331896    2.5929331   -3.6944566 
H    -3.7468163    4.4759965   -4.3830428 
H    -1.8916144    4.6066021   -0.4907487 
H    -1.9768995    0.8999115   -2.7357269 
C    -3.1638842    6.1831555   -2.3348284 
H    -4.2384177    6.3705871   -2.5066607 
H    -2.8954863    6.5928781   -1.3476085 
H    -2.6077432    6.7527331   -3.1019054 
C    -3.3666712    1.8236804   -4.9226315 
H    -2.9648514    2.2852866   -5.8422631 
H    -3.0254275    0.7760088   -4.8870867 
H    -4.4675827    1.8201935   -5.0166168 
C     1.5770259    4.4189260    2.5692263 
C     1.0734682    3.1961546    3.0486106 
C     0.2763618    2.4219027    2.1895636 
C    -0.0091388    2.8521060    0.8747480 
C     0.5456285    4.0614787    0.4054581 
C     1.3246657    4.8664229    1.2594802 
H     2.1839523    5.0433759    3.2362209 
H    -0.1241775    1.4764230    2.5613562 
H     0.3733725    4.3899438   -0.6238949 
C     1.3923879    2.7137657    4.4459076 
H     1.3119367    3.5320440    5.1818485 
H     0.7162082    1.8990897    4.7543860 
H     2.4273168    2.3291075    4.4906904 
C     1.8824590    6.1912150    0.7888645 
H     1.4523335    6.4905198   -0.1795379 
H     1.6766234    6.9877016    1.5252316 
H     2.9798653    6.1354369    0.6680642 
