112
Energy =
C     2.5963214    1.9030674   -1.3581096 
C     1.7391569    1.6056090   -2.4345969 
C     0.4292563    2.1901887   -2.4920756 
H     2.0296529    0.8516019   -3.1777357 
Pd    0.5922198    0.8920650   -0.7037874 
P    -1.6375339    0.6911857   -0.0243487 
P     1.3680759   -0.7726898    0.7585271 
H     2.3304805    2.7827511   -0.7510101 
H     0.3255842    3.2029842   -2.0764761 
C     6.6332888    0.6051662   -0.6867472 
C     6.1302491    1.7516394   -0.0527953 
C     4.8086531    2.1529206   -0.2785407 
C     3.9704252    1.4300928   -1.1612216 
C     4.5022071    0.2943595   -1.8159707 
C     5.8138417   -0.1201180   -1.5697536 
H     7.6624618    0.2808905   -0.5015286 
H     6.7662501    2.3293082    0.6258335 
H     4.4111387    3.0342620    0.2364343 
H     3.8823996   -0.2801055   -2.5084074 
H     6.2008008   -1.0129307   -2.0710164 
C    -2.3832779    1.1952228   -5.6052150 
C    -1.5988555    0.1870075   -5.0192492 
C    -0.6789784    0.5068102   -4.0153687 
C    -0.5245470    1.8396817   -3.5674191 
C    -1.3076276    2.8426436   -4.1768451 
C    -2.2274168    2.5243484   -5.1854336 
H    -3.1065193    0.9455696   -6.3881358 
H    -1.7110518   -0.8531236   -5.3431837 
H    -0.0906005   -0.2883479   -3.5440367 
H    -1.1852034    3.8839512   -3.8591231 
H    -2.8251731    3.3183050   -5.6451128 
Fe   -0.5317990   -3.7670129    1.1638408 
C     0.0726946   -1.8372799    1.4753279 
C    -1.3421446   -1.8812749    1.1232577 
C    -1.9926602   -2.7107981    2.1040252 
C    -1.0203992   -3.1755761    3.0473124 
C     0.2561226   -2.6591662    2.6562615 
C    -0.1606349   -4.5879696   -0.6821926 
C     0.8833693   -4.9334909    0.2399015 
C     0.2893620   -5.6319077    1.3396641 
C    -1.1232559   -5.7195474    1.0996870 
C    -1.4013127   -5.0762342   -0.1519620 
C     2.3107872   -0.1492983    2.2062980 
C     1.6612640    0.1217883    3.4293483 
C     2.3612171    0.7143388    4.4885451 
C     3.7168080    1.0460637    4.3426329 
C     4.3691513    0.7795471    3.1300649 
C     3.6736077    0.1901170    2.0658584 
C     2.5060261   -1.9201109   -0.1252046 
C     2.2621580   -2.1630801   -1.4916265 
C     3.0557457   -3.0693390   -2.2076832 
C     4.1177273   -3.7269862   -1.5675990 
C     4.3670058   -3.4896302   -0.2065037 
C     3.5597891   -2.5998828    0.5171491 
C    -2.0894808   -1.1349605    0.0360703 
H    -3.0577555   -2.9527677    2.1093642 
H    -1.2097631   -3.8467587    3.8869684 
H     1.2068782   -2.8331796    3.1631546 
H    -0.0243283   -4.0563382   -1.6236637 
H     1.9405174   -4.6947996    0.1282978 
H     0.8131022   -6.0043033    2.2221093 
H    -1.8607592   -6.1712524    1.7658682 
H    -2.3879170   -4.9759675   -0.6080874 
H     0.6072004   -0.1378164    3.5593893 
H     4.1990529   -0.0133492    1.1298259 
H     1.4488412   -1.6270826   -1.9953886 
H     3.7528194   -2.4393967    1.5822882 
H     1.8439817    0.9129184    5.4330823 
H     5.4274446    1.0300341    3.0033859 
H     2.8531938   -3.2536182   -3.2679094 
H     5.1892586   -4.0065601    0.2989214 
H     4.2628672    1.5058223    5.1727225 
H     4.7466372   -4.4271813   -2.1268700 
H    -3.1602792   -1.1856624    0.2965439 
C    -1.8983105   -1.7153690   -1.3784460 
H    -2.4281700   -1.1244081   -2.1446239 
H    -0.8277196   -1.7370644   -1.6392375 
H    -2.2797193   -2.7472998   -1.4061213 
H    -2.7142102    1.1487539   -2.1314096 
H    -2.9226124    2.0493167    1.4739988 
C    -3.9362752    3.6348804   -2.0550283 
C    -2.9393383    2.9963781   -1.0463706 
C    -2.9755382    1.4517734   -1.1013382 
C    -4.3894028    0.9098991   -0.7438384 
C    -5.5187755    1.8751677   -1.1863704 
C    -5.0968055    2.6863477   -2.4178571 
H    -3.4081691    3.9377971   -2.9726836 
H    -4.3404065    4.5595196   -1.6053011 
H    -3.2025702    3.3261239   -0.0250979 
H    -1.9144744    3.3614301   -1.2348208 
H    -4.5262547   -0.0699910   -1.2348458 
H    -4.4749816    0.7300854    0.3451649 
H    -6.4390477    1.2974539   -1.3802077 
H    -5.7567902    2.5741646   -0.3622834 
H    -5.9468325    3.2653769   -2.8183881 
H    -4.7817830    1.9952680   -3.2237984 
C    -1.2215467    3.3382408    3.2348909 
C    -0.8785184    2.5356084    1.9676348 
C    -1.9793932    1.4964789    1.6480931 
C    -2.2362902    0.5608730    2.8457714 
C    -2.5837506    1.3820884    4.1022905 
C    -1.4909413    2.4120150    4.4317338 
H    -2.1202794    3.9561132    3.0393483 
H    -0.3991993    4.0396597    3.4637677 
H     0.0838746    2.0063736    2.1091117 
H    -0.7395948    3.2173082    1.1081323 
H    -3.0570639   -0.1402641    2.6165968 
H    -1.3448766   -0.0585292    3.0445213 
H    -3.5444479    1.9084779    3.9369423 
H    -2.7420281    0.6971856    4.9547476 
H    -0.5556906    1.8821712    4.6978734 
H    -1.7798860    3.0052285    5.3174218 
