124
Energy =
C     1.6747592    2.3850197    1.4842384 
C     2.3182834    2.2296978    0.2308691 
C     1.6368612    2.5313908   -0.9833833 
H     3.3080628    1.7573640    0.1834859 
Pd    0.5753490    0.9126230    0.1485583 
P    -0.6385187    0.0515762   -1.6550071 
P    -0.1930664   -0.6824612    1.7368265 
H     0.8250355    3.0838156    1.5221484 
H     0.8600536    3.3091490   -0.9427193 
C     3.5382705    1.7788687    5.3078854 
C     2.4167504    2.6104574    5.1786261 
C     1.7968052    2.7641067    3.9334419 
C     2.3010436    2.1102263    2.7864944 
C     3.4200130    1.2578096    2.9361056 
C     4.0285577    1.0925568    4.1836863 
H     4.0249687    1.6579415    6.2809632 
H     2.0211359    3.1406508    6.0508079 
H     0.9204714    3.4149901    3.8378360 
H     3.8179536    0.7157198    2.0732394 
H     4.8946627    0.4296054    4.2802793 
C     3.3589141    1.9700517   -4.8865680 
C     3.6379776    1.0482979   -3.8635409 
C     3.0806442    1.2191970   -2.5923212 
C     2.2290243    2.3135922   -2.3177977 
C     1.9483118    3.2242688   -3.3590427 
C     2.5137564    3.0584278   -4.6289258 
H     3.7881235    1.8325765   -5.8840747 
H     4.2880594    0.1893342   -4.0607555 
H     3.2904997    0.4855114   -1.8059511 
H     1.2786854    4.0691163   -3.1676054 
H     2.2748125    3.7691968   -5.4265075 
Fe   -3.2181350    1.2873092    0.2400475 
C    -2.3275888   -0.0935768   -0.9887204 
C    -2.6410537   -0.6946112    0.3004777 
C    -4.0610896   -0.5575379    0.4928508 
C    -4.6241349    0.1094088   -0.6418749 
C    -3.5619065    0.4034339   -1.5551691 
C    -2.1522078    3.0519722    0.3426768 
C    -3.4716772    3.2786723   -0.1721864 
C    -4.4109010    2.8373547    0.8179767 
C    -3.6711044    2.3366474    1.9399848 
C    -2.2716094    2.4675162    1.6462694 
C    -1.7677238   -1.5760009    1.1686262 
H    -4.6099111   -0.9128245    1.3678220 
H    -5.6740129    0.3758565   -0.7759002 
H    -3.6612538    0.9202876   -2.5110934 
H    -1.2168283    3.2846680   -0.1674548 
H    -3.7233351    3.7018272   -1.1465188 
H    -5.4981502    2.8611351    0.7259126 
H    -4.1038251    1.9316520    2.8549717 
H    -1.4480810    2.1899469    2.3043560 
H    -2.3344825   -1.7689804    2.0948107 
C    -1.4990992   -2.9361201    0.4862378 
H    -0.7984270   -2.8436999   -0.3547567 
H    -1.0822827   -3.6643005    1.1980217 
H    -2.4513004   -3.3334425    0.0949636 
C     3.3274259   -3.7354777    2.2566117 
C     3.4223342   -2.5998820    1.4321997 
C     2.3357041   -1.7298163    1.3118006 
C     1.1236336   -1.9481296    1.9975676 
C     1.0185071   -3.0717859    2.8654064 
C     2.1237297   -3.9379814    2.9581315 
H     4.3491990   -2.3940492    0.8848472 
H     2.4161445   -0.8380397    0.6765989 
H     2.0413639   -4.8105217    3.6182390 
C    -1.2992070    0.3041132    6.1348982 
C    -2.3061204    0.3567857    5.1554434 
C    -1.9524909    0.0883822    3.8207179 
C    -0.6206584   -0.1961034    3.4650672 
C     0.3761645   -0.2034681    4.4620718 
C     0.0407347    0.0179858    5.8101469 
H    -1.5677293    0.4741409    7.1847981 
H    -2.7292040    0.0980940    3.0504685 
H     1.4144050   -0.4330392    4.1994599 
C     4.4678563   -4.7187185    2.3828792 
H     4.6241712   -5.0187317    3.4334666 
H     4.2497310   -5.6401471    1.8110134 
H     5.4107884   -4.2988208    1.9962418 
C    -0.1846820   -3.3695150    3.7364915 
H    -0.3898663   -4.4532037    3.7595805 
H     0.0117417   -3.0433004    4.7741866 
H    -1.0967768   -2.8485006    3.4139228 
C    -3.7345219    0.6969345    5.5213552 
H    -3.8943084    1.7917813    5.4952312 
H    -4.4518825    0.2385801    4.8191540 
H    -3.9842155    0.3552738    6.5396696 
C     1.0808006   -0.0881057    6.9032788 
H     2.0565290   -0.4042838    6.5029087 
H     1.2219547    0.8811803    7.4143336 
H     0.7653405   -0.8172415    7.6711115 
C     0.9796716   -4.1002838   -3.0319738 
C     1.7401776   -3.2269538   -2.2750944 
C     1.2030117   -1.9693080   -1.9082811 
C    -0.0773379   -1.5803669   -2.2932466 
H     1.3742787   -5.0845923   -3.3072858 
H     2.7440229   -3.5038453   -1.9385577 
H     1.7917341   -1.2910761   -1.2865169 
C    -0.8747815   -2.4500230   -3.1214441 
C    -0.3269966   -3.7397528   -3.4772534 
C    -1.1024473   -4.6292539   -4.2782347 
C    -2.3610359   -4.2687854   -4.7286327 
C    -2.8913516   -2.9950934   -4.3981634 
C    -2.1669612   -2.1097283   -3.6151740 
H    -0.6786761   -5.6057604   -4.5371005 
H    -2.9450906   -4.9595035   -5.3452403 
H    -3.8805857   -2.7063890   -4.7681112 
H    -2.5880367   -1.1302054   -3.3836985 
C    -0.1696097    0.6862645   -4.3436486 
C    -0.7805177    1.0867730   -3.1594085 
C    -1.4332428    2.3558317   -3.1002808 
C    -1.4842263    3.1737084   -4.2139308 
H     0.3580095   -0.2707869   -4.4011747 
H    -1.9079963    2.6625976   -2.1676439 
H    -1.9935989    4.1424256   -4.1585608 
C    -0.8716333    2.7852832   -5.4423618 
C    -0.2042002    1.5098394   -5.5039033 
C     0.4280061    1.1157131   -6.7192056 
C     0.4100601    1.9493758   -7.8254785 
C    -0.2440710    3.2099240   -7.7636233 
C    -0.8745551    3.6181618   -6.5979820 
H     0.9361672    0.1462907   -6.7597482 
H     0.9002862    1.6400448   -8.7543580 
H    -0.2505657    3.8590219   -8.6454485 
H    -1.3806433    4.5887916   -6.5521563 
