124
Energy =
C     2.1289663    1.5841755    2.0382651 
C     1.9423224    0.4088380    2.8099302 
C     2.4459267   -0.8461494    2.3916499 
H     1.3014703    0.4537074    3.6988319 
Pd    0.9507572    0.0425304    0.8625276 
P     0.0530701   -1.8904044   -0.1003282 
P    -0.0496652    1.6055157   -0.5893013 
H     2.9884572    1.5933467    1.3500436 
H     3.2805255   -0.8339613    1.6752254 
C     0.6633153    5.5114620    3.0464070 
C     1.7059376    5.3496048    2.1221929 
C     2.1887800    4.0686694    1.8260978 
C     1.6256097    2.9165254    2.4238427 
C     0.5867140    3.0997237    3.3671101 
C     0.1190529    4.3804674    3.6785483 
H     0.2861963    6.5109587    3.2849482 
H     2.1550485    6.2237446    1.6393428 
H     3.0243282    3.9564098    1.1260340 
H     0.1234731    2.2330401    3.8494206 
H    -0.6816148    4.4994600    4.4158199 
C     2.2023236   -4.4753124    4.7031668 
C     1.3167358   -3.4184350    4.9707540 
C     1.3719318   -2.2412639    4.2175410 
C     2.3263184   -2.0834119    3.1840762 
C     3.2198144   -3.1520611    2.9379881 
C     3.1556127   -4.3354732    3.6833127 
H     2.1533401   -5.3973878    5.2910017 
H     0.5737202   -3.5163396    5.7690523 
H     0.6548802   -1.4407661    4.4280102 
H     3.9836410   -3.0432275    2.1608745 
H     3.8601294   -5.1471862    3.4744932 
Fe   -2.7658373    0.6756730   -2.9416572 
C    -0.9207158    0.9026413   -2.0329071 
C    -1.2850157   -0.4993875   -2.2049001 
C    -1.4731384   -0.7285416   -3.6167266 
C    -1.2753287    0.5064120   -4.3143922 
C    -0.9644242    1.5143518   -3.3484192 
C    -4.2201786    2.1216925   -3.0141254 
C    -4.3211182    1.2321724   -4.1347152 
C    -4.5199431   -0.0983837   -3.6304565 
C    -4.5435025   -0.0312327   -2.1967481 
C    -4.3624892    1.3374322   -1.8191931 
C    -1.4987827   -1.5266724   -1.1144941 
H    -1.7628706   -1.6716105   -4.0816817 
H    -1.3877395    0.6593682   -5.3891913 
H    -0.7703694    2.5643152   -3.5665692 
H    -4.0696713    3.2013850   -3.0645657 
H    -4.2404070    1.5120186   -5.1866470 
H    -4.6157198   -1.0029302   -4.2343073 
H    -4.6827010   -0.8697183   -1.5119396 
H    -4.3448000    1.7173067   -0.7985389 
H    -2.1452759   -1.0530528   -0.3534381 
C    -2.1999067   -2.7885337   -1.6473744 
H    -3.0792936   -2.4943522   -2.2444467 
H    -1.5374515   -3.3869178   -2.2949672 
H    -2.5498199   -3.4309925   -0.8266936 
H     1.9619101    2.7796988   -0.3489352 
C     2.5027514    4.6231087   -2.3065725 
C     1.1607246    3.9671625   -1.9228770 
C     1.4008108    2.5856276   -1.2794989 
C     2.2785812    1.6690337   -2.1602412 
C     3.5992550    2.3574870   -2.5459486 
C     3.3468795    3.7170992   -3.2155213 
H     3.0720401    4.8444375   -1.3817600 
H     2.3080161    5.5947055   -2.7947641 
H     0.5317594    3.8762474   -2.8263862 
H     0.6267475    4.6224328   -1.2146689 
H     2.4848202    0.7290461   -1.6136356 
H     1.7231525    1.3880695   -3.0746748 
H     4.2109618    2.5073282   -1.6336592 
H     4.1815642    1.6954230   -3.2117881 
H     2.8139162    3.5596488   -4.1741206 
H     4.3047352    4.2079904   -3.4633081 
H    -0.4780035    3.3719127    0.9504875 
C    -3.0064425    2.8516853    2.1055810 
C    -2.0833789    1.9488118    1.2689878 
C    -1.1729856    2.7748160    0.3299386 
C    -2.0023029    3.7216763   -0.5602484 
C    -2.9110308    4.6252692    0.2957905 
C    -3.8238986    3.8132009    1.2280460 
H    -2.3819654    3.4430654    2.8007871 
H    -3.6745123    2.2280138    2.7269884 
H    -2.6883021    1.2525823    0.6545364 
H    -1.4564580    1.3196762    1.9295593 
H    -1.3467745    4.3477515   -1.1850034 
H    -2.6003244    3.1083009   -1.2534616 
H    -2.2742052    5.2966259    0.9048393 
H    -3.5138980    5.2736443   -0.3655538 
H    -4.5520161    3.2378620    0.6233833 
H    -4.4215186    4.4910383    1.8632066 
H     0.6194187   -3.8087232   -1.4560230 
C     3.3883418   -4.1888817   -1.2394537 
C     2.4442437   -3.3229369   -0.3879802 
C     1.1920509   -2.8999304   -1.1839642 
C     1.6010786   -2.1668444   -2.4790852 
C     2.5528185   -3.0290875   -3.3287563 
C     3.7931637   -3.4652220   -2.5332896 
H     2.8802840   -5.1407360   -1.4901369 
H     4.2814048   -4.4554604   -0.6454341 
H     2.9758502   -2.4051166   -0.0705547 
H     2.1627546   -3.8590784    0.5340917 
H     0.7142973   -1.8922599   -3.0713203 
H     2.1012837   -1.2185817   -2.2077677 
H     2.0086358   -3.9276013   -3.6810213 
H     2.8488145   -2.4664329   -4.2324717 
H     4.3946107   -2.5702998   -2.2764736 
H     4.4391081   -4.1132986   -3.1518646 
H     0.3341032   -2.9602905    1.9886215 
C    -0.9992004   -5.3248324    2.2407688 
C    -0.6703394   -4.5441743    0.9531032 
C    -0.5072883   -3.0412314    1.2747899 
C    -1.7568601   -2.4666209    1.9840151 
C    -2.1138468   -3.2800820    3.2415826 
C    -2.2627281   -4.7764373    2.9230241 
H    -0.1408359   -5.2486423    2.9360937 
H    -1.1231096   -6.3958085    1.9996690 
H    -1.4790596   -4.7032277    0.2182595 
H     0.2527899   -4.9470127    0.5024899 
H    -1.5826685   -1.4047018    2.2461042 
H    -2.6219121   -2.4872629    1.2932767 
H    -1.3154622   -3.1487824    3.9939658 
H    -3.0435368   -2.8819041    3.6867679 
H    -3.1337165   -4.9259345    2.2541360 
H    -2.4757153   -5.3422851    3.8475495 
