124
Energy =
C     1.9330139    1.7211270    2.2603664 
C     1.9778536    0.4242761    2.8603988 
C     2.6614809   -0.6416055    2.2376191 
H     1.3561894    0.2202693    3.7414941 
Pd    0.9977846    0.1940136    0.9031603 
P     0.0091638   -1.8061903    0.1718635 
P     0.0527991    1.6090665   -0.7110107 
H     2.8184785    2.0319628    1.6894670 
H     3.3869782   -0.3799752    1.4512853 
C    -0.4513454    4.9358192    3.8698215 
C    -0.8556397    3.6022754    4.0487762 
C    -0.0926887    2.5560354    3.5198964 
C     1.1088343    2.8144053    2.8171787 
C     1.5085342    4.1607679    2.6576818 
C     0.7339269    5.2092467    3.1709695 
H    -1.0542117    5.7540057    4.2765415 
H    -1.7768885    3.3780043    4.5964702 
H    -0.4432063    1.5244218    3.6364970 
H     2.4449887    4.3858949    2.1369941 
H     1.0650070    6.2442374    3.0358713 
C     3.0229053   -4.6958615    3.6277526 
C     3.5556859   -4.3096263    2.3874824 
C     3.4484256   -2.9809264    1.9620099 
C     2.7896781   -2.0122443    2.7556423 
C     2.2764080   -2.4125108    4.0119491 
C     2.3942697   -3.7390019    4.4415060 
H     3.1096372   -5.7333787    3.9657319 
H     4.0642269   -5.0446449    1.7549231 
H     3.8745256   -2.6803599    0.9980032 
H     1.7877056   -1.6816839    4.6637435 
H     1.9948551   -4.0285422    5.4188455 
Fe   -2.4766984    0.4714377   -3.1735438 
C    -0.7305564    0.6985755   -2.0973130 
C    -1.2526071   -0.6603235   -2.0104946 
C    -1.3298405   -1.1885477   -3.3483508 
C    -0.8914628   -0.1773505   -4.2648316 
C    -0.5444338    0.9869974   -3.5078390 
C    -4.3129541   -0.2872950   -3.6223190 
C    -4.3737672    0.4490654   -2.3916462 
C    -3.9746990    1.7977872   -2.6709457 
C    -3.6515592    1.8978783   -4.0626664 
C    -3.8658832    0.6075596   -4.6539920 
C    -1.5934463   -1.3938465   -0.7389296 
H    -1.7105907   -2.1717734   -3.6283784 
H    -0.8706523   -0.2638814   -5.3526127 
H    -0.1815452    1.9257517   -3.9280338 
H    -4.5487648   -1.3450513   -3.7549118 
H    -4.6838853    0.0613165   -1.4193220 
H    -3.9350000    2.6093074   -1.9476250 
H    -3.3040725    2.7939261   -4.5797182 
H    -3.6983893    0.3442421   -5.6999777 
H    -2.0421356   -0.6597217   -0.0451069 
C    -2.6048506   -2.5343371   -0.9457550 
H    -3.4701556   -2.1379197   -1.5030719 
H    -2.1878762   -3.3740814   -1.5202751 
H    -2.9689433   -2.9249964    0.0165034 
H     0.8394999    3.0726883   -2.4584788 
C     3.4915086    2.4496868   -3.0124629 
C     2.4636669    1.6572448   -2.1854907 
C     1.3720689    2.5897417   -1.6159864 
C     2.0167754    3.6995069   -0.7641799 
C     3.0319201    4.5040120   -1.5972997 
C     4.1157586    3.5918147   -2.1943566 
H     2.9874684    2.8687084   -3.9058377 
H     4.2750238    1.7656147   -3.3854498 
H     2.9715879    1.1582354   -1.3354617 
H     2.0129650    0.8585219   -2.7988314 
H     1.2559477    4.3732334   -0.3352783 
H     2.5412690    3.2304457    0.0856182 
H     2.4970013    5.0285396   -2.4133311 
H     3.4892669    5.2873452   -0.9662446 
H     4.7201673    3.1607234   -1.3713001 
H     4.8104656    4.1788479   -2.8208726 
H    -0.5312435    3.3217005    0.8187536 
C    -3.2878418    3.1403792    1.3071876 
C    -2.3288680    2.1398420    0.6377091 
C    -1.1215560    2.8615835    0.0016176 
C    -1.5591694    3.9643255   -0.9819136 
C    -2.5099377    4.9598897   -0.2874920 
C    -3.7232288    4.2605918    0.3481790 
H    -2.7710823    3.5915727    2.1740620 
H    -4.1697366    2.6043702    1.7026642 
H    -2.8552097    1.5690590   -0.1513540 
H    -1.9654079    1.4044812    1.3808522 
H    -0.6808272    4.5093187   -1.3694417 
H    -2.0490289    3.4942867   -1.8539161 
H    -1.9447630    5.4918913    0.5027472 
H    -2.8410378    5.7252940   -1.0122124 
H    -4.3708723    3.8416436   -0.4466845 
H    -4.3446970    4.9977663    0.8869999 
H     1.7233240   -3.4021544   -0.0689151 
C     3.1446168   -2.9012521   -2.4075103 
C     2.0870215   -2.0337970   -1.7041458 
C     1.1247411   -2.8974114   -0.8552924 
C     0.4622127   -3.9849755   -1.7300438 
C     1.5336048   -4.8568034   -2.4126391 
C     2.4957037   -4.0060221   -3.2568130 
H     3.7979593   -3.3655071   -1.6414557 
H     3.7948206   -2.2616050   -3.0313338 
H     1.4984132   -1.4754646   -2.4570007 
H     2.5732185   -1.2775548   -1.0607725 
H    -0.2166863   -4.6163394   -1.1342173 
H    -0.1465423   -3.4927367   -2.5092045 
H     2.1055315   -5.4024076   -1.6359296 
H     1.0418952   -5.6227752   -3.0388658 
H     1.9329583   -3.5404503   -4.0900606 
H     3.2718141   -4.6436958   -3.7161068 
H     0.4978270   -2.7377346    2.2732122 
C    -1.0544234   -4.8906502    2.9511715 
C    -0.8230901   -4.2614850    1.5625309 
C    -0.4522177   -2.7689248    1.7067778 
C    -1.4955318   -1.9824203    2.5348922 
C    -1.7140853   -2.6381323    3.9099910 
C    -2.1058871   -4.1176789    3.7634393 
H    -0.0952440   -4.8950092    3.5034694 
H    -1.3575764   -5.9460887    2.8299791 
H    -1.7339891   -4.3802825    0.9495220 
H    -0.0110269   -4.8034576    1.0478339 
H    -1.1610534   -0.9325053    2.6519811 
H    -2.4614772   -1.9491768    1.9948135 
H    -0.7781809   -2.5640666    4.4973449 
H    -2.4883193   -2.0830538    4.4697478 
H    -3.0880262   -4.1861781    3.2545644 
H    -2.2347649   -4.5791069    4.7587469 
