110
Energy =
C    -3.5357195    0.8286731    0.2325878 
C    -2.6901558    1.9657653    0.1085909 
C    -1.9630531    2.2185030   -1.0746892 
H    -2.5219852    2.6077339    0.9817853 
Pd   -1.3455715    0.2241452   -0.0999896 
P     0.9389511    0.6183049   -0.3541838 
P    -1.1702845   -2.1130181    0.4068837 
H    -3.9700284    0.4368600   -0.6962915 
H    -2.2615760    1.6594202   -1.9752567 
C    -5.8189003   -0.0493478    3.7758646 
C    -4.6220565    0.6793442    3.8797839 
C    -3.8726262    0.9704996    2.7359286 
C    -4.3037639    0.5419317    1.4573019 
C    -5.5181624   -0.1769645    1.3677471 
C    -6.2654447   -0.4721244    2.5146822 
H    -6.4018880   -0.2808800    4.6729544 
H    -4.2693455    1.0159053    4.8602585 
H    -2.9298280    1.5189917    2.8384426 
H    -5.8794804   -0.4998378    0.3854521 
H    -7.2035317   -1.0292450    2.4230754 
C     0.2415852    5.7903954   -1.9990188 
C     0.1915491    4.7247039   -2.9113888 
C    -0.5122458    3.5595200   -2.5873405 
C    -1.1686707    3.4277807   -1.3402703 
C    -1.0969269    4.5064734   -0.4275122 
C    -0.4055694    5.6759674   -0.7572212 
H     0.7786314    6.7095712   -2.2549514 
H     0.6889893    4.8056908   -3.8834679 
H    -0.5655946    2.7404128   -3.3115517 
H    -1.5943034    4.4435094    0.5446622 
H    -0.3609047    6.4964426   -0.0349645 
Fe    3.6156447   -1.6979895    0.2577643 
C     1.9589763   -0.5610452    0.5803820 
C     1.6429521   -1.9750395    0.6968739 
C     2.4869552   -2.5147819    1.7328637 
C     3.3061612   -1.4586617    2.2547579 
C     2.9951347   -0.2549620    1.5442409 
C     4.2022995   -3.0417559   -1.1883259 
C     4.2143538   -1.7082779   -1.7087282 
C     5.1119607   -0.9264219   -0.9027903 
C     5.6485930   -1.7813633    0.1168408 
C     5.0819140   -3.0882695   -0.0562288 
C     1.3332522    2.2109164    0.4774219 
C     1.9816905    3.3009248   -0.1273391 
C     2.1967100    4.4819838    0.5948364 
C     1.7443141    4.5925810    1.9158551 
C     1.0879116    3.5114909    2.5289395 
C     0.8856567    2.3284235    1.8139218 
C     1.5608542    0.7121864   -2.0763555 
C     0.7097866    0.2844536   -3.1126929 
C     1.1289410    0.3409661   -4.4480881 
C     2.4023685    0.8435914   -4.7539707 
C     3.2682825    1.2554139   -3.7258980 
C     2.8532158    1.1775847   -2.3930998 
C     0.5899601   -2.6974563   -0.1048298 
H     2.5316531   -3.5587936    2.0459948 
H     4.0682844   -1.5645746    3.0288510 
H     3.4465458    0.7256670    1.7012198 
H     3.6286280   -3.8775308   -1.5916937 
H     3.6442406   -1.3567335   -2.5687808 
H     5.3590958    0.1273209   -1.0383116 
H     6.3463845   -1.4838250    0.9016931 
H     5.2720021   -3.9586855    0.5742898 
H     2.2906920    3.2606403   -1.1736228 
H     0.3774339    1.4847330    2.2939454 
H    -0.2916502   -0.0869797   -2.8664026 
H     3.5429903    1.4637222   -1.5949849 
H     0.6414231   -2.2961541   -1.1341281 
C     0.8684698   -4.2114716   -0.1729754 
H     0.2845159   -4.7031173   -0.9638311 
H     1.9359943   -4.3470403   -0.4096538 
H     0.6689675   -4.7287964    0.7751494 
C     1.8688252    5.9123859    2.6426815 
F     1.9236257    5.7495019    3.9824115 
F     2.9657457    6.5993874    2.2570700 
F     0.7894026    6.7034112    2.3809736 
H     2.6969182    5.3287094    0.1170633 
H     0.7409337    3.6003159    3.5624832 
H     0.4702504    0.0022358   -5.2527299 
H     4.2696463    1.6200968   -3.9728988 
C     2.8335960    0.9945901   -6.1987596 
F     2.5706605    2.2470879   -6.6457462 
F     4.1609662    0.7849972   -6.3437649 
F     2.1826327    0.1300215   -7.0081558 
C    -2.3463016   -3.1653216   -0.6947122 
C    -1.4057525   -2.4653561    2.2777555 
C    -1.7917223   -3.0906019   -2.1383348 
H    -2.5384566   -3.5217410   -2.8292440 
H    -1.6219088   -2.0412665   -2.4432375 
H    -0.8541016   -3.6513936   -2.2760896 
C    -0.7632949   -1.2628116    3.0129218 
H    -0.8827729   -1.4041383    4.1029226 
H     0.3137562   -1.1673299    2.7978832 
H    -1.2677941   -0.3210000    2.7341406 
C    -2.4946250   -4.6349142   -0.2409542 
H    -3.1125679   -5.1698453   -0.9855877 
H    -1.5367573   -5.1671208   -0.1622673 
H    -3.0132617   -4.7104838    0.7278085 
C    -3.7457655   -2.5129262   -0.7139892 
H    -4.4233311   -3.1494946   -1.3118682 
H    -4.1829417   -2.4019275    0.2883486 
H    -3.7097072   -1.5209133   -1.1897858 
C    -2.9109331   -2.4966850    2.6146421 
H    -3.0231497   -2.5024446    3.7138319 
H    -3.4386624   -1.6097592    2.2367105 
H    -3.4076242   -3.4009149    2.2282456 
C    -0.7517009   -3.7725073    2.7683420 
H     0.3436111   -3.7472370    2.6695044 
H    -0.9809734   -3.8913122    3.8434031 
H    -1.1421128   -4.6612954    2.2479696 
