90
Energy =
C     1.9662708   -0.3914363    2.1734956 
C     2.6724162    0.4073139    1.2405148 
C     2.2947925    1.7472094    0.9921934 
H     3.4877596   -0.0371744    0.6576484 
Pd    0.6110332    0.2263996    0.4110924 
P    -0.4935104    1.5664624   -1.1969627 
P    -0.9129068   -1.5895946    0.7036053 
H     1.3662296    0.1504557    2.9163867 
H     1.6435948    2.2206066    1.7414531 
C     2.9958084   -4.3858612    3.4093818 
C     2.1172593   -3.6010183    4.1724329 
C     1.8057713   -2.2996650    3.7627802 
C     2.3537940   -1.7540266    2.5767639 
C     3.2614980   -2.5480635    1.8375793 
C     3.5748257   -3.8477516    2.2479764 
H     3.2399581   -5.4053531    3.7243833 
H     1.6788221   -4.0018740    5.0920424 
H     1.1277271   -1.6910091    4.3706685 
H     3.7168488   -2.1566111    0.9227587 
H     4.2755587   -4.4474162    1.6578977 
C     4.5139756    4.6093534   -1.3338685 
C     3.5011886    5.0256189   -0.4569681 
C     2.7896967    4.0796037    0.2909258 
C     3.0627132    2.6959498    0.1696017 
C     4.1030969    2.2970742   -0.7026337 
C     4.8182557    3.2417714   -1.4438104 
H     5.0742164    5.3460128   -1.9184667 
H     3.2725915    6.0905896   -0.3464171 
H     2.0193586    4.4136773    0.9954478 
H     4.3522545    1.2366337   -0.8132847 
H     5.6182346    2.9115635   -2.1143311 
Fe   -3.2477354   -0.5029974   -1.4988155 
C    -2.2737888    1.2610146   -1.4295979 
C    -3.2163269    1.1432416   -0.3348231 
H    -2.9639714    1.1720576    0.7265170 
C    -4.5286023    0.9680460   -0.8854588 
H    -5.4471061    0.8229318   -0.3141782 
C    -4.4165205    0.9750051   -2.3139437 
H    -5.2347231    0.8346174   -3.0225895 
C    -3.0372285    1.1589907   -2.6569201 
C    -2.1881902   -1.9180800   -0.5550353 
C    -1.9376047   -1.9788743   -1.9765281 
H    -0.9666046   -1.8511956   -2.4489846 
C    -3.1804652   -2.2052470   -2.6503384 
H    -3.3195955   -2.2662194   -3.7310128 
C    -4.2097566   -2.3073523   -1.6594918 
H    -5.2740425   -2.4568487   -1.8499687 
C    -3.6100847   -2.1402862   -0.3682715 
C     0.0031631   -3.2417473    0.7320636 
C    -1.9808017   -1.3119665    2.2476415 
H    -2.6399883    1.2010299   -3.6717885 
H    -4.1489481   -2.1582528    0.5799562 
C    -0.4787264    3.3834469   -0.7044601 
C     0.2145214    1.5774319   -2.9393147 
H     0.5584260   -3.2394234    1.6852954 
H    -2.8989343   -0.9049910    1.7863651 
H     0.5993511    3.6214644   -0.6780040 
H    -0.4608441    2.2406157   -3.5114095 
C    -1.1711180    4.3002194   -1.7260388 
H    -1.1325378    5.3444887   -1.3671097 
H    -0.6807867    4.2748763   -2.7134733 
H    -2.2333703    4.0270248   -1.8551728 
C    -1.0493505    3.5792996    0.7106055 
H    -0.8262423    4.6018870    1.0636254 
H    -2.1458176    3.4577387    0.7225077 
H    -0.6156007    2.8655632    1.4338984 
C     0.2144757    0.1864946   -3.5908417 
H     0.6747007    0.2507438   -4.5926869 
H     0.8091128   -0.5264434   -2.9906441 
H    -0.8026967   -0.2154934   -3.7087370 
C     1.6324298    2.1683178   -2.9471721 
H     1.9898353    2.2477060   -3.9888398 
H     1.6958989    3.1712610   -2.4945247 
H     2.3258534    1.5078050   -2.4023855 
C    -0.8842052   -4.4959100    0.6529810 
H    -0.2330508   -5.3875913    0.6143956 
H    -1.5475893   -4.6098126    1.5218427 
H    -1.5036311   -4.4918682   -0.2606486 
C     1.0164702   -3.2321951   -0.4315482 
H     1.7125052   -4.0810409   -0.3203455 
H     0.5045313   -3.3405733   -1.4035546 
H     1.6093103   -2.3002925   -0.4560802 
C    -2.3441322   -2.5786136    3.0391271 
H    -2.9877440   -2.3012782    3.8932190 
H    -2.8969564   -3.3095678    2.4280095 
H    -1.4437800   -3.0718261    3.4451334 
C    -1.4263962   -0.2160905    3.1726928 
H    -2.2002801    0.0706187    3.9063875 
H    -0.5502329   -0.5692708    3.7392814 
H    -1.1336100    0.6879706    2.6089057 
