98
Energy =
C     1.9739791   -0.3520416   -2.3634500 
C     2.3395780   -1.1756662   -1.2703682 
C     1.5394302   -2.2546687   -0.8317978 
H     3.2580405   -0.9417242   -0.7196213 
Pd    0.4663171   -0.2150591   -0.5415209 
P    -0.5220640   -1.0788634    1.4306741 
P    -0.8069873    1.7661875   -0.9644700 
H     1.2336275   -0.7587604   -3.0666017 
H     0.7508862   -2.5994616   -1.5160084 
C     4.6416836    2.5296735   -4.1339086 
C     3.6256138    1.9309077   -4.8931104 
C     2.7602993    1.0034251   -4.3006607 
C     2.8838744    0.6570591   -2.9343591 
C     3.9276168    1.2568513   -2.1895523 
C     4.7928784    2.1812434   -2.7810014 
H     5.3187912    3.2564488   -4.5940227 
H     3.5114276    2.1800457   -5.9530927 
H     1.9843249    0.5238945   -4.9077482 
H     4.0557777    1.0111686   -1.1298187 
H     5.5896960    2.6369490   -2.1840886 
C     2.7192648   -5.2590495    2.0066650 
C     3.5124035   -4.1106393    1.8414232 
C     3.1287853   -3.1115722    0.9446016 
C     1.9443455   -3.2419468    0.1798474 
C     1.1573657   -4.4046570    0.3567810 
C     1.5383215   -5.4002459    1.2635949 
H     3.0244761   -6.0403118    2.7104382 
H     4.4333318   -3.9923248    2.4205796 
H     3.7587421   -2.2237120    0.8402302 
H     0.2432986   -4.5296824   -0.2320423 
H     0.9161345   -6.2934033    1.3808264 
Fe   -2.9306675    1.2293715    1.8129010 
C    -2.3903860    1.8161042   -0.0454114 
C    -3.0607960    2.8985850    0.6502364 
H    -2.6491663    3.8822091    0.8728884 
C    -4.3722916    2.4605919    1.0232645 
H    -5.1002051    3.0455237    1.5883660 
C    -4.5419670    1.1137382    0.5681892 
H    -5.4197529    0.4853045    0.7282577 
C    -3.3299672    0.7088750   -0.0813352 
C    -1.6380651   -0.1283588    2.5183922 
C    -2.9947867   -0.4572074    2.9101446 
H    -3.5453454   -1.3550326    2.6275368 
C    -3.5058442    0.6353647    3.6857177 
H    -4.5138620    0.7026260    4.0990537 
C    -2.4851855    1.6359996    3.7840029 
H    -2.5733141    2.5958933    4.2955228 
C    -1.3326339    1.1688957    3.0761914 
C    -1.5307241   -2.5667512    1.0461020 
C    -2.0233613   -3.4546219    2.0262315 
H    -1.8240021   -3.2767066    3.0865580 
C    -2.7948024   -4.5634815    1.6514797 
H    -3.1605610   -5.2521286    2.4201458 
C    -3.1074923   -4.7862048    0.3014253 
H    -3.7118513   -5.6528186    0.0144415 
C    -2.6570796   -3.8869398   -0.6765309 
H    -2.9131010   -4.0428326   -1.7295798 
C    -1.8728025   -2.7865226   -0.3047807 
H    -1.5138201   -2.0843251   -1.0676140 
C     0.8465245   -1.4622099    2.6107523 
C     0.9091460   -2.5737038    3.4696084 
H     0.1667135   -3.3713373    3.4081096 
C     1.9588318   -2.6904398    4.3916932 
H     2.0026328   -3.5670304    5.0461065 
C     2.9521228   -1.7039846    4.4700957 
H     3.7663048   -1.8004204    5.1956997 
C     2.9057970   -0.6000424    3.6056745 
H     3.6841521    0.1689558    3.6495784 
C     1.8623525   -0.4830282    2.6784059 
H     1.8369607    0.3703270    1.9882851 
H    -3.1366508   -0.2815291   -0.4955359 
H    -0.3828172    1.6917965    2.9846902 
C     0.1449807    3.3668324   -0.5191262 
C    -1.4842741    1.8400022   -2.7750217 
C    -0.5277251    4.6677162   -1.0040023 
H     0.0524806    5.5266731   -0.6194924 
H    -0.5341185    4.7437330   -2.1024788 
H    -1.5628805    4.7776914   -0.6460538 
C     0.3001024    3.3853781    1.0173112 
H     0.9296126    4.2483917    1.3008578 
H    -0.6597552    3.4673421    1.5477041 
H     0.8099469    2.4686945    1.3631151 
C     1.5653429    3.2553256   -1.1101395 
H     2.1531254    4.1388677   -0.8012812 
H     2.0725147    2.3567977   -0.7228851 
H     1.5860479    3.2071778   -2.2080617 
C    -1.8453042    0.3898561   -3.1736369 
H    -2.2093034    0.3845959   -4.2174440 
H    -0.9683584   -0.2781620   -3.1132558 
H    -2.6464537   -0.0281679   -2.5437435 
C    -2.7483720    2.7200070   -2.8857982 
H    -3.0672950    2.7381777   -3.9444846 
H    -3.5842521    2.3216943   -2.2890023 
H    -2.5661020    3.7603869   -2.5756868 
C    -0.3982176    2.3559701   -3.7355627 
H    -0.7422531    2.2112003   -4.7761132 
H    -0.1970857    3.4308652   -3.6043808 
H     0.5480998    1.8103853   -3.6147148 
