98
Energy =
C    -0.7457771   -2.8899132    0.5031134 
C    -1.4532651   -2.2101564    1.5258738 
C    -2.5314895   -1.3431890    1.2239112 
H    -1.0999414   -2.2812714    2.5616267 
Pd   -0.5756466   -0.6349694    0.2389741 
P    -1.1576388    1.6524272    0.0560818 
P     1.4746017   -0.6979080   -0.9360585 
H    -1.2766425   -3.0398915   -0.4482081 
H    -3.0397973   -1.4938641    0.2594811 
C     2.4941104   -5.6504080    1.1330519 
C     1.7410539   -5.6874469   -0.0498409 
C     0.6851222   -4.7866145   -0.2376421 
C     0.3657518   -3.8243409    0.7482300 
C     1.1344335   -3.8001046    1.9360486 
C     2.1809780   -4.7070694    2.1271836 
H     3.3192868   -6.3537456    1.2834025 
H     1.9715758   -6.4249632   -0.8254503 
H     0.0914915   -4.8305390   -1.1575523 
H     0.9275662   -3.0515894    2.7079643 
H     2.7643531   -4.6740831    3.0529323 
C    -4.9779060    0.5999874    4.1887014 
C    -3.6571252    0.2396626    4.5053282 
C    -2.8466757   -0.3815145    3.5493338 
C    -3.3382299   -0.6592618    2.2521009 
C    -4.6746165   -0.3037341    1.9547641 
C    -5.4850083    0.3212969    2.9107977 
H    -5.6091120    1.0890018    4.9374700 
H    -3.2566906    0.4473486    5.5029824 
H    -1.8177599   -0.6476270    3.8119779 
H    -5.0845980   -0.5355426    0.9649677 
H    -6.5171666    0.5854730    2.6592188 
Fe    1.4574760    2.5464093   -1.8038511 
C     2.3523747    0.8836872   -1.1438208 
C     2.4058112    1.9099568   -0.1266934 
H     1.9838420    1.8236105    0.8753326 
C     3.0942070    3.0448742   -0.6639308 
H     3.2670704    3.9907446   -0.1477489 
C     3.4905240    2.7317733   -2.0053201 
H     4.0163102    3.3978069   -2.6917468 
C     3.0467287    1.4021741   -2.3075004 
C    -0.5049759    2.5351493   -1.3973951 
C    -0.2505864    1.9303631   -2.6872637 
H    -0.4936188    0.9033542   -2.9631158 
C     0.3954146    2.8988345   -3.5218184 
H     0.7407292    2.7325213   -4.5435827 
C     0.5415107    4.1096397   -2.7692628 
H     1.0170496    5.0282583   -3.1173437 
C    -0.0114411    3.8983556   -1.4641493 
H     3.1917822    0.8906985   -3.2601073 
H    -0.0362173    4.6382781   -0.6631340 
C    -0.6179712    2.7646940    1.4817124 
C    -1.8097409    3.7336869    1.6632425 
C    -3.1014926    2.9226495    1.4760620 
C    -3.0009040    2.1082209    0.1608689 
H     0.2818882    3.2966634    1.1282342 
H    -1.7753020    4.2221129    2.6532731 
H    -1.7603715    4.5393747    0.9082211 
H    -3.2280427    2.2251467    2.3235242 
H    -3.9952868    3.5707739    1.4614754 
H    -3.5502026    1.1618434    0.2803240 
C     1.3694571   -1.3710218   -2.6966883 
C     2.5431353   -2.3863016   -2.8130562 
C     3.6138162   -2.0778291   -1.7518634 
C     2.8781517   -1.8336298   -0.4176431 
H     1.5549133   -0.4947697   -3.3432611 
H     2.1453428   -3.4015966   -2.6266886 
H     2.9655858   -2.3855507   -3.8324607 
H     4.3275321   -2.9149065   -1.6581955 
H     4.2005809   -1.1813925   -2.0282086 
H     2.3958441   -2.7779261   -0.1120588 
C     3.7185280   -1.2975229    0.7524211 
H     4.1332854   -0.3070380    0.4868074 
H     3.0500713   -1.1363162    1.6204632 
C     4.8613192   -2.2409971    1.1547262 
H     5.3893464   -1.8561991    2.0440235 
H     4.4787561   -3.2490493    1.3916970 
H     5.6045369   -2.3424043    0.3449976 
C    -0.0049886   -1.9584849   -3.0706379 
H    -0.1888816   -2.8569405   -2.4534172 
H    -0.8029502   -1.2383918   -2.8037262 
C    -0.1121096   -2.3218886   -4.5577388 
H    -1.1113912   -2.7255022   -4.7944307 
H     0.0547565   -1.4338303   -5.1941341 
H     0.6340434   -3.0840363   -4.8422531 
C    -0.2514719    1.9673434    2.7515829 
H     0.3715344    1.0971227    2.4639331 
H    -1.1708603    1.5449615    3.1931256 
C     0.4932113    2.8118521    3.7937114 
H     0.7343674    2.2112055    4.6875001 
H     1.4416483    3.2035015    3.3824930 
H    -0.1086409    3.6756651    4.1264260 
C    -3.5571219    2.8205280   -1.0891252 
H    -2.8959560    3.6529947   -1.3928327 
H    -4.5193986    3.2835846   -0.7984090 
C    -3.7980212    1.8706553   -2.2686948 
H    -4.5334034    1.0906702   -1.9990752 
H    -4.1872437    2.4148150   -3.1456936 
H    -2.8691280    1.3615209   -2.5788662 
