124
Energy =
C     0.6203516    0.6667215   -3.3893945 
C     1.2859799   -0.5711683   -3.1619322 
C     0.5774336   -1.7843772   -2.9949516 
H     2.3640930   -0.5553653   -2.9587799 
Pd   -0.0484977   -0.2225562   -1.4398745 
P    -0.3587881   -1.4654920    0.5010475 
P    -0.7937925    1.6813968   -0.2989697 
H    -0.3598946    0.6341699   -3.8882361 
H    -0.4402545   -1.8388564   -3.4113490 
C     2.6183532    4.4721744   -3.6480844 
C     3.2243248    3.4139416   -2.9493044 
C     2.5895531    2.1713145   -2.8641338 
C     1.3276097    1.9594172   -3.4695042 
C     0.7372253    3.0291298   -4.1763370 
C     1.3756546    4.2718594   -4.2657815 
H     3.1177733    5.4442383   -3.7155293 
H     4.1974994    3.5584086   -2.4682739 
H     3.0793568    1.3600870   -2.3147383 
H    -0.2324445    2.8807441   -4.6609944 
H     0.8967692    5.0872179   -4.8171018 
C     2.2730941   -5.6244088   -2.0401059 
C     0.9343597   -5.5069612   -2.4414223 
C     0.3996700   -4.2513777   -2.7525365 
C     1.1937602   -3.0842744   -2.6814459 
C     2.5524155   -3.2238244   -2.3060944 
C     3.0806431   -4.4762523   -1.9779507 
H     2.6855145   -6.6025587   -1.7767905 
H     0.2967587   -6.3937540   -2.5090863 
H    -0.6483757   -4.1733680   -3.0591436 
H     3.2144253   -2.3524798   -2.2783682 
H     4.1295888   -4.5542514   -1.6757678 
Fe   -3.5977835   -1.1951795    2.0160814 
C    -1.6199931   -0.9301855    1.6774892 
C    -2.3339504    0.3437582    1.6620266 
C    -2.9493697    0.4893207    2.9574036 
C    -2.6572461   -0.6697923    3.7490084 
C    -1.8500067   -1.5546441    2.9674197 
C    -5.6197512   -1.1364148    2.2830846 
C    -5.2906093   -0.8621824    0.9129906 
C    -4.5743223   -1.9905453    0.3968993 
C    -4.4550720   -2.9641473    1.4485606 
C    -5.1057948   -2.4357036    2.6116795 
C     1.2326209   -1.1453633    1.3824026 
C     2.4057895   -1.2956633    0.6257100 
C     3.6526570   -0.9729381    1.1751308 
C     3.7474493   -0.5163330    2.4947398 
C     2.5746761   -0.3755995    3.2529692 
C     1.3193799   -0.6725435    2.7033858 
C    -0.4947592   -3.2970728    0.4704294 
C    -1.5760259   -3.8569790   -0.2289719 
C    -1.7523359   -5.2468785   -0.2607945 
C    -0.8391238   -6.0924610    0.3815976 
C     0.2618027   -5.5323315    1.0461174 
C     0.4371740   -4.1434291    1.0975085 
C    -2.4689300    1.3168261    0.5054169 
H    -3.5819434    1.3199047    3.2726544 
H    -3.0259933   -0.8614544    4.7581584 
H    -1.4609101   -2.5264775    3.2777845 
H    -6.1455646   -0.4640429    2.9635582 
H    -5.5353340    0.0496667    0.3644100 
H    -4.2003803   -2.0931206   -0.6230560 
H    -3.9635768   -3.9337160    1.3750826 
H    -5.1741247   -2.9238422    3.5855602 
H     2.3459439   -1.6572639   -0.4043280 
H     0.4196074   -0.5162847    3.3023926 
H    -2.2808765   -3.2087391   -0.7558993 
H     1.3002685   -3.7328808    1.6273967 
H    -2.9758625    0.7821125   -0.3192453 
C    -3.3075760    2.5599168    0.8494383 
H    -4.3075403    2.2417768    1.1915157 
H    -2.8479478    3.1676634    1.6454669 
H    -3.4372643    3.2024621   -0.0345136 
C     4.8693985   -1.0929132    0.2878392 
F     5.1132246   -2.3772792   -0.0637117 
F     4.6722716   -0.4076150   -0.8847418 
F     5.9799927   -0.5960989    0.8605419 
C     2.6834528    0.0601639    4.6987837 
F     1.4979689    0.5035790    5.1835416 
F     3.0839545   -0.9632698    5.4858075 
F     3.5894638    1.0583138    4.8525023 
C    -2.8730718   -5.8306152   -1.0909158 
F    -3.2372385   -7.0551714   -0.6669037 
F    -3.9724240   -5.0345398   -1.0728595 
F    -2.4962459   -5.9470875   -2.3949765 
C     1.2677207   -6.4599876    1.6965859 
F     1.8229024   -7.2894690    0.7776968 
F     2.2711095   -5.7804516    2.2944376 
F     0.6791571   -7.2401935    2.6305723 
H     4.7191603   -0.2562177    2.9216513 
H    -0.9751554   -7.1768863    0.3486813 
C    -1.7560950    5.3451444   -2.9369731 
C    -2.4100990    4.1176353   -3.1799054 
C    -2.0715744    3.0165755   -2.3794867 
C    -1.1240749    3.1474748   -1.3403896 
C    -0.4830421    4.3746903   -1.1226895 
C    -0.7869521    5.4900423   -1.9317258 
H    -2.0049248    6.2105562   -3.5631315 
H    -2.5533501    2.0477163   -2.5655246 
H     0.2614997    4.4710171   -0.3256098 
C    -3.4283427    3.9986584   -4.2918593 
H    -3.8587862    2.9850289   -4.3434807 
H    -4.2562882    4.7158430   -4.1490500 
H    -2.9703920    4.2259531   -5.2718900 
C    -0.0530856    6.7949024   -1.7246972 
H    -0.5054991    7.6139291   -2.3067031 
H    -0.0470136    7.0867090   -0.6599693 
H     1.0016177    6.6924378   -2.0416479 
C     2.3273825    3.0722214    2.8036394 
C     2.7334240    2.6620812    1.5187713 
C     1.7474047    2.2207442    0.6216277 
C     0.3870403    2.2119051    0.9893320 
C     0.0093847    2.6153972    2.2830413 
C     0.9798122    3.0464723    3.2080273 
H     3.0882344    3.3990444    3.5210862 
H     2.0360919    1.8821431   -0.3780630 
H    -1.0387736    2.5871622    2.5906525 
C     4.1891920    2.7057140    1.1118036 
H     4.4731989    3.7265539    0.7945175 
H     4.8490436    2.4293784    1.9516895 
H     4.3945319    2.0255752    0.2697205 
C     0.5816889    3.4944826    4.5963455 
H     1.3504924    3.2213746    5.3369998 
H     0.4583068    4.5931614    4.6302641 
H    -0.3732554    3.0393205    4.9070198 
