124
Energy =
C     1.4679035   -3.2487985   -0.0171990 
C     2.3360806   -2.5056223   -0.8643777 
C     3.1419858   -1.4583554   -0.3531636 
H     2.2730487   -2.6472574   -1.9500056 
Pd    0.9302245   -1.0566610    0.0180953 
P     0.9838432    1.2824282   -0.1695100 
P    -1.2512066   -1.0951902    0.8499495 
H     1.7455182   -3.3276488    1.0431731 
H     3.3415118   -1.4638375    0.7290330 
C    -1.3127033   -6.2814056   -1.2881583 
C    -0.8019642   -5.3709244   -2.2289218 
C     0.1068353   -4.3829016   -1.8351550 
C     0.5326620   -4.2861284   -0.4883549 
C     0.0288427   -5.2253769    0.4397296 
C    -0.8888800   -6.2063452    0.0465929 
H    -2.0297289   -7.0484955   -1.5981375 
H    -1.1183708   -5.4298425   -3.2758906 
H     0.4760822   -3.6695713   -2.5800198 
H     0.3687879   -5.1841154    1.4791047 
H    -1.2715356   -6.9158189    0.7872826 
C     5.9649853    0.9356813   -2.5480712 
C     5.8223843    1.0835940   -1.1597375 
C     4.8958704    0.3005030   -0.4618148 
C     4.0720548   -0.6303915   -1.1385880 
C     4.2119433   -0.7506249   -2.5417019 
C     5.1590652    0.0108247   -3.2326658 
H     6.7033454    1.5317721   -3.0943169 
H     6.4444395    1.8003917   -0.6137630 
H     4.8039469    0.4092045    0.6234513 
H     3.5888154   -1.4559468   -3.0996683 
H     5.2672705   -0.1135678   -4.3146657 
Fe   -2.6514793    1.6256102    2.8739674 
C    -1.3788237    0.2576516    2.0564807 
C    -0.9095855    1.6128726    1.8060227 
C    -0.7184550    2.2493334    3.0809143 
C    -1.0688201    1.3162388    4.1115588 
C    -1.4875989    0.0938906    3.4921453 
C    -4.1207636    2.6338197    1.8657195 
C    -4.5917968    1.3345935    2.2645515 
C    -4.4855491    1.2419928    3.6908052 
C    -3.9565053    2.4852240    4.1772263 
C    -3.7282490    3.3449545    3.0494810 
C    -0.5844873    2.1594656    0.4458307 
H    -0.3921175    3.2783168    3.2373353 
H    -1.0619196    1.5163966    5.1844819 
H    -1.8231926   -0.8078875    4.0048453 
H    -4.0755069    3.0248599    0.8475173 
H    -4.9584347    0.5480074    1.6028348 
H    -4.7469740    0.3733430    4.2975060 
H    -3.7406943    2.7260130    5.2197226 
H    -3.3193076    4.3563272    3.0864597 
H    -1.3514603    1.8021314   -0.2599378 
C    -0.5205288    3.6881728    0.3786996 
H    -1.4687960    4.1033301    0.7635590 
H     0.3024675    4.0882969    0.9939253 
H    -0.3855440    4.0320613   -0.6596199 
C     4.3219123    2.7961324    2.7316367 
C     3.5592122    1.6276889    2.9377286 
C     2.5940881    1.2500823    2.0063440 
C     2.3293739    2.0188184    0.8440834 
C     3.0388636    3.2335333    0.6518661 
C     4.0326705    3.5703041    1.5972658 
H     3.7294164    1.0088672    3.8257050 
H     2.0210958    0.3280664    2.1665808 
H     4.5954136    4.4987111    1.4390295 
C     1.0125531    2.1305021   -4.7135693 
C    -0.1874683    1.7861721   -4.0663989 
C    -0.1530657    1.5615281   -2.6789502 
C     1.0536885    1.6729545   -1.9557063 
C     2.2520865    1.9617149   -2.6392971 
C     2.2365571    2.2194019   -4.0221697 
H     0.9952302    2.3380497   -5.7905968 
H    -1.0850350    1.2885895   -2.1718060 
H     3.1987749    2.0091514   -2.0933112 
C     5.4109509    3.1933062    3.7005738 
H     5.0621380    3.1166523    4.7452244 
H     6.2836081    2.5211641    3.6001232 
H     5.7576990    4.2242565    3.5238368 
C     2.8117192    4.2127895   -0.4809564 
H     2.7533838    5.2399394   -0.0810729 
H     3.6571885    4.1880042   -1.1920997 
H     1.8953644    4.0124207   -1.0494684 
C    -1.4843421    1.6429349   -4.8317722 
H    -2.3483132    1.9767606   -4.2328356 
H    -1.4649523    2.2187547   -5.7718060 
H    -1.6655023    0.5832235   -5.0913812 
C     3.4991636    2.6017736   -4.7618535 
H     3.8157513    1.7946890   -5.4474959 
H     3.3353342    3.5045415   -5.3763571 
H     4.3308177    2.7980651   -4.0674204 
C    -2.7990560   -4.9352409    3.0002259 
C    -3.5487938   -4.3306804    2.0072575 
C    -3.0745099   -3.1559833    1.3712745 
C    -1.8552594   -2.5863706    1.7310072 
H    -3.1584953   -5.8464086    3.4906594 
H    -4.5106342   -4.7544665    1.7020216 
H    -3.6798385   -2.6976310    0.5830009 
C    -1.0543816   -3.1905012    2.7644647 
C    -1.5441553   -4.3904251    3.4008987 
C    -0.7498121   -5.0196068    4.4052606 
C     0.4779234   -4.4976052    4.7769742 
C     0.9550926   -3.3092288    4.1641772 
C     0.2042947   -2.6704698    3.1897628 
H    -1.1298252   -5.9315765    4.8784588 
H     1.0786798   -4.9937350    5.5458470 
H     1.9212221   -2.8920129    4.4672270 
H     0.5851644   -1.7512816    2.7300634 
C    -3.1984866    0.2594085   -0.7025409 
C    -2.3755573   -0.8507210   -0.5701559 
C    -2.2789439   -1.8005542   -1.6350848 
C    -3.0100669   -1.6220348   -2.7934258 
H    -3.2627579    0.9755244    0.1207682 
H    -1.6289892   -2.6742662   -1.5242889 
H    -2.9406371   -2.3592417   -3.6010566 
C    -3.8514067   -0.4815666   -2.9685700 
C    -3.9414600    0.4829939   -1.8998506 
C    -4.7627339    1.6350953   -2.0778132 
C    -5.4638953    1.8287033   -3.2576935 
C    -5.3794647    0.8745129   -4.3074067 
C    -4.5921873   -0.2575034   -4.1642629 
H    -4.8363079    2.3664691   -1.2661879 
H    -6.0909937    2.7172781   -3.3831980 
H    -5.9422142    1.0375667   -5.2322636 
H    -4.5258249   -0.9925713   -4.9737816 
