122
Energy =
C     3.5633891    0.9226640   -0.2362372 
C     2.8521853    2.1392118   -0.0916113 
C     2.2441124    2.4990137    1.1351854 
H     2.6907217    2.7698671   -0.9744924 
Pd    1.3602286    0.5397532    0.3158517 
P    -0.8610314    0.9087239    0.9922792 
P     1.4361102   -1.7389627   -0.3355115 
H     3.9849711    0.4762437    0.6745805 
H     2.5990310    1.9754231    2.0360162 
C     5.5150178   -0.3503641   -3.8522528 
C     5.9473562   -0.8127175   -2.6010282 
C     5.2977096   -0.3936719   -1.4340206 
C     4.2023592    0.4965065   -1.4926353 
C     3.7850358    0.9622472   -2.7616184 
C     4.4329110    0.5429960   -3.9263719 
H     6.0189070   -0.6800120   -4.7666330 
H     6.7935977   -1.5040952   -2.5312752 
H     5.6406559   -0.7538441   -0.4585273 
H     2.9342375    1.6472174   -2.8413285 
H     4.0890027    0.9073494   -4.8998884 
C     0.2487791    6.2085515    2.0310280 
C     0.6016380    5.3151278    3.0536608 
C     1.2628277    4.1213945    2.7424423 
C     1.5733525    3.7816495    1.4037290 
C     1.2417796    4.7105729    0.3898204 
C     0.5855508    5.9058614    0.7008034 
H    -0.2673102    7.1441400    2.2688247 
H     0.3693661    5.5517672    4.0971976 
H     1.5547887    3.4379341    3.5471483 
H     1.4940607    4.4998132   -0.6534622 
H     0.3372231    6.6104651   -0.0996855 
Fe   -3.6074724   -2.0933722   -1.5283644 
C    -2.1046059   -1.0069462   -0.6857353 
C    -1.6190674   -2.3256296   -1.0688863 
C    -1.8634987   -2.4942630   -2.4813904 
H    -1.6037076   -3.3835197   -3.0559699 
C    -2.4481791   -1.2921281   -2.9882764 
H    -2.7527976   -1.1108553   -4.0202313 
C    -2.6108186   -0.3849006   -1.8902718 
H    -3.0927800    0.5903174   -1.9527577 
C    -5.2727980   -1.8441883   -0.3691546 
H    -5.3799201   -1.1568815    0.4728455 
C    -4.8183931   -3.2034382   -0.2949936 
H    -4.5362414   -3.7333637    0.6168250 
C    -4.8163238   -3.7458878   -1.6253708 
H    -4.5210937   -4.7571493   -1.9118008 
C    -5.2760434   -2.7223487   -2.5200340 
H    -5.3723363   -2.8131186   -3.6034856 
C    -5.5590895   -1.5476254   -1.7440774 
H    -5.9077648   -0.5901164   -2.1357990 
C    -0.9384121   -3.3366231   -0.2185275 
C     0.3800359   -3.1424302    0.2811372 
C     0.9290707   -4.1012136    1.1597990 
H     1.9357102   -3.9633671    1.5611883 
C     0.2197944   -5.2582270    1.5070854 
H     0.6701885   -5.9832656    2.1925603 
C    -1.0413192   -5.4931634    0.9463794 
H    -1.5916756   -6.4105316    1.1793126 
C    -1.6050781   -4.5361709    0.0953448 
H    -2.5982107   -4.6884908   -0.3321478 
C    -2.1804825   -0.4171275    0.7090502 
H    -3.1282474    0.1461332    0.7651823 
C    -2.2020740   -1.4757164    1.8278086 
H    -2.8877954   -2.2843262    1.5291372 
H    -1.2146239   -1.9264376    2.0069659 
H    -2.5662809   -1.0451156    2.7725473 
C     5.5856390   -3.2891121    1.1344947 
C     4.7710544   -2.4911430    1.9552580 
C     3.5415568   -2.0216767    1.4751394 
C     3.1087036   -2.3442132    0.1694707 
C     3.9363495   -3.1325105   -0.6499436 
C     5.1661425   -3.6046816   -0.1649712 
H     6.5468893   -3.6572685    1.5073804 
H     5.0926998   -2.2363109    2.9703871 
H     2.9045915   -1.4028115    2.1204481 
H     3.6410464   -3.3632311   -1.6763482 
H     5.8038409   -4.2113240   -0.8162581 
C     1.0342948   -2.1570325   -4.9436370 
C     1.2558564   -3.3054350   -4.1651922 
C     1.3793523   -3.1996147   -2.7741620 
C     1.3043977   -1.9335858   -2.1547107 
C     1.0623958   -0.7914132   -2.9376892 
C     0.9277482   -0.9023432   -4.3278752 
H     0.9320252   -2.2453673   -6.0303424 
H     1.3200449   -4.2886161   -4.6430041 
H     1.5050439   -4.1029326   -2.1674087 
H     0.9554983    0.1801043   -2.4430348 
H     0.7348174   -0.0077889   -4.9290327 
H    -0.3410290    2.3547043    2.7507128 
C     0.1353166    0.9777626    5.1028749 
C    -0.0318924    0.4378619    3.6710711 
C    -0.8886328    1.3940672    2.8052701 
C    -2.2519703    1.6999086    3.4637979 
C    -2.0540018    2.2322846    4.8969827 
C    -1.2261257    1.2644285    5.7561221 
H     0.7293683    1.9126342    5.0771928 
H     0.7126732    0.2548438    5.7068458 
H    -0.5029458   -0.5593680    3.7175328 
H     0.9557606    0.2939622    3.1911232 
H    -2.8054755    2.4462191    2.8709365 
H    -2.8771743    0.7884347    3.4960644 
H    -1.5377463    3.2116206    4.8464382 
H    -3.0395813    2.4179963    5.3601577 
H    -1.7817280    0.3131851    5.8751145 
H    -1.0853043    1.6765543    6.7711916 
H    -1.0284821    3.2651936    0.6886125 
C    -3.3643553    3.9919639   -0.6486653 
C    -3.0063817    2.6736267    0.0627597 
C    -1.4762079    2.4498619    0.0868107 
C    -0.8688740    2.5398108   -1.3363622 
C    -1.2825713    3.8307543   -2.0654507 
C    -2.8072067    4.0178918   -2.0798869 
H    -2.9459696    4.8419497   -0.0746036 
H    -4.4617012    4.1198491   -0.6537598 
H    -3.5058891    1.8436161   -0.4682726 
H    -3.4159797    2.6767644    1.0863793 
H     0.2331734    2.4781679   -1.2624708 
H    -1.1815485    1.6634960   -1.9305049 
H    -0.8257470    4.6983771   -1.5540830 
H    -0.8794779    3.8176428   -3.0945799 
H    -3.2768785    3.2066270   -2.6716657 
H    -3.0716359    4.9662769   -2.5805359 
