110
Energy =
C     2.6733061    1.0838436    0.7052833 
C     2.6983680    1.9639186   -0.4322841 
C     1.8070856    3.0413988   -0.5404017 
H     3.3812831    1.7444961   -1.2627059 
Pd    0.7631288    0.8404076   -0.3663018 
P    -0.9514418    0.5180405   -1.9823740 
P    -0.1609531   -0.4632410    1.3117799 
H     2.3869509    1.5230871    1.6710452 
H     1.2225151    3.2909336    0.3588157 
C     5.0770296   -2.4891989    0.9532591 
C     4.7313619   -1.9626197   -0.3023621 
C     3.9566794   -0.8010886   -0.3922129 
C     3.5223930   -0.1233727    0.7739905 
C     3.9009078   -0.6550954    2.0285988 
C     4.6577812   -1.8290434    2.1183201 
H     5.6612046   -3.4115426    1.0263231 
H     5.0578881   -2.4687119   -1.2170838 
H     3.6665077   -0.4272630   -1.3810473 
H     3.6064447   -0.1276769    2.9411599 
H     4.9246110   -2.2339021    3.0996556 
C     1.5875259    6.0754498   -3.5652637 
C     0.7884684    6.1474322   -2.4137669 
C     0.8741687    5.1458254   -1.4418048 
C     1.7593879    4.0500893   -1.5980284 
C     2.5725288    4.0039015   -2.7573304 
C     2.4817120    5.0026791   -3.7297564 
H     1.5238798    6.8575363   -4.3286547 
H     0.0999001    6.9867487   -2.2735684 
H     0.2465241    5.2009429   -0.5449306 
H     3.2848780    3.1854428   -2.8982667 
H     3.1176275    4.9527032   -4.6194892 
Fe   -3.0948648   -2.4379998    1.0966254 
C    -1.9347163   -0.7768765    1.0862515 
C    -2.5702455   -0.9671709   -0.2095004 
C    -3.9937358   -0.9685701    0.0137411 
C    -4.2410908   -0.7862236    1.4152412 
C    -2.9795924   -0.6789428    2.0855337 
C    -2.9281136   -4.2681870    0.1709848 
C    -1.9572997   -4.1472613    1.2166049 
C    -2.6563634   -3.9054644    2.4475146 
C    -4.0626625   -3.8808593    2.1590717 
C    -4.2306057   -4.0999724    0.7501267 
C    -0.0875159    0.6053607    2.8052272 
C     0.8935925    0.4525382    3.8053722 
C     1.0054243    1.3905502    4.8405396 
C     0.1429931    2.4947738    4.8839511 
C    -0.8417073    2.6560939    3.8937281 
C    -0.9527362    1.7224909    2.8605615 
C     0.6680204   -2.0419442    1.7152132 
C     0.5839920   -2.6610575    2.9783373 
C     1.2681973   -3.8585965    3.2170559 
C     2.0195123   -4.4510670    2.1887365 
C     2.0607791   -3.8694436    0.9121980 
C     1.3954865   -2.6620052    0.6816930 
C    -1.8509772   -1.1113729   -1.5285390 
H    -4.7612130   -1.1222183   -0.7461415 
H    -5.2216491   -0.7746952    1.8943525 
H    -2.8251664   -0.5372477    3.1562895 
H    -2.7111570   -4.4614719   -0.8809080 
H    -0.8767092   -4.2243841    1.0955894 
H    -2.2018748   -3.7649001    3.4290899 
H    -4.8629630   -3.7015075    2.8794173 
H    -5.1806174   -4.1184351    0.2128159 
H     1.5775591   -0.3991620    3.7815396 
H    -1.7194565    1.8588307    2.0923729 
H    -0.0125932   -2.2107725    3.7777593 
H     1.4574917   -2.1816511   -0.2996632 
H    -0.9799471   -1.7668100   -1.3431083 
C    -2.7324213   -1.7889829   -2.5940464 
H    -3.1975319   -2.6790137   -2.1388959 
H    -3.5390408   -1.1393499   -2.9607093 
H    -2.1421871   -2.1244913   -3.4591269 
C     0.2982987    3.5482502    5.9599643 
F    -0.9015962    4.0378991    6.3483194 
F     0.9251845    3.0622164    7.0536208 
F     1.0296753    4.5960768    5.5045407 
H     1.7621405    1.2612781    5.6195786 
H    -1.5226092    3.5113569    3.9379053 
H     1.2218001   -4.3371502    4.1993730 
H     2.6348513   -4.3459573    0.1135454 
C     2.8673181   -5.6724699    2.4676098 
F     2.9085987   -6.5055348    1.4035680 
F     4.1504016   -5.3041724    2.7356469 
F     2.4195143   -6.3719940    3.5312023 
C    -0.0729008    0.1412023   -3.6518691 
C    -2.2385254    1.9251276   -2.1233303 
C     1.0365184    1.1959275   -3.8635873 
H     1.5964037    0.9471336   -4.7838431 
H     0.6484112    2.2180939   -3.9734893 
H     1.7470683    1.1899637   -3.0192302 
C    -2.4916479    2.4099746   -0.6743723 
H    -3.2118384    3.2485857   -0.6971853 
H    -2.9168310    1.6153770   -0.0392003 
H    -1.5563344    2.7716997   -0.2111475 
C     0.6304130   -1.2279781   -3.4786979 
H     1.2963236   -1.3984652   -4.3439237 
H     1.2568873   -1.2393280   -2.5663942 
H    -0.0722387   -2.0750486   -3.4330233 
C    -1.0005747    0.1252204   -4.8847941 
H    -0.4059973   -0.1631301   -5.7714604 
H    -1.8283481   -0.5928499   -4.7931857 
H    -1.4269021    1.1206819   -5.0876698 
C    -1.6220563    3.0917877   -2.9220098 
H    -2.2830986    3.9727266   -2.8289541 
H    -0.6328825    3.3783496   -2.5325800 
H    -1.5285914    2.8631151   -3.9956618 
C    -3.5771329    1.5050893   -2.7623509 
H    -4.2258793    2.3971709   -2.8392051 
H    -3.4505807    1.0987077   -3.7784382 
H    -4.1091892    0.7664148   -2.1427647 
