110
Energy =
C    -3.5405555    0.8077389    0.2247200 
C    -2.7022459    1.9499432    0.0970808 
C    -1.9753219    2.2024061   -1.0862979 
H    -2.5391565    2.5964848    0.9678729 
Pd   -1.3469254    0.2153431   -0.1024105 
P     0.9356521    0.6233735   -0.3528268 
P    -1.1578438   -2.1189017    0.4112306 
H    -3.9719025    0.4099408   -0.7029793 
H    -2.2686412    1.6371932   -1.9847493 
C    -5.8192269   -0.0725070    3.7703619 
C    -4.6268401    0.6637549    3.8721147 
C    -3.8790486    0.9558343    2.7274207 
C    -4.3073890    0.5205834    1.4501161 
C    -5.5174384   -0.2058706    1.3626765 
C    -6.2630692   -0.5019165    2.5104656 
H    -6.4008435   -0.3048523    4.6681307 
H    -4.2762396    1.0054353    4.8515754 
H    -2.9395871    1.5103522    2.8282495 
H    -5.8766945   -0.5339690    0.3813560 
H    -7.1977481   -1.0650046    2.4205232 
C     0.2098286    5.7829768   -2.0228226 
C     0.1689785    4.7123284   -2.9298554 
C    -0.5286404    3.5445489   -2.6018653 
C    -1.1877867    3.4151885   -1.3559677 
C    -1.1253413    4.4989570   -0.4485621 
C    -0.4402450    5.6709859   -0.7823343 
H     0.7419779    6.7041057   -2.2819441 
H     0.6687198    4.7913708   -3.9009152 
H    -0.5749206    2.7214170   -3.3219937 
H    -1.6252499    4.4379277    0.5224385 
H    -0.4027604    6.4954392   -0.0642040 
Fe    3.6258465   -1.6733223    0.2684621 
C     1.9609835   -0.5470448    0.5869989 
C     1.6540502   -1.9628688    0.7051001 
C     2.5001929   -2.4955635    1.7429719 
C     3.3115179   -1.4332623    2.2646696 
C     2.9935270   -0.2326252    1.5520112 
C     4.2269298   -3.0190207   -1.1699426 
C     4.2253654   -1.6883404   -1.6977350 
C     5.1148246   -0.8930253   -0.8959430 
C     5.6598299   -1.7366958    0.1285520 
C     5.1065967   -3.0502359   -0.0373622 
C     1.3172155    2.2210275    0.4749618 
C     1.9590005    3.3140693   -0.1314707 
C     2.1631167    4.4989725    0.5875116 
C     1.7060427    4.6104594    1.9068569 
C     1.0563061    3.5263352    2.5216258 
C     0.8652355    2.3393956    1.8099206 
C     1.5608273    0.7153384   -2.0739589 
C     2.8494601    1.1910969   -2.3901411 
C     3.2669103    1.2661928   -3.7224035 
C     2.4073802    0.8410509   -4.7502745 
C     1.1380076    0.3278395   -4.4447215 
C     0.7162010    0.2743635   -3.1101163 
C     0.6068058   -2.6933954   -0.0968322 
H     2.5513495   -3.5388148    2.0576419 
H     4.0732026   -1.5330133    3.0400092 
H     3.4381763    0.7512241    1.7081781 
H     3.6620033   -3.8629356   -1.5686820 
H     3.6517866   -1.3471971   -2.5597214 
H     5.3513849    0.1623460   -1.0371989 
H     6.3542024   -1.4276140    0.9119768 
H     5.3052327   -3.9151058    0.5981291 
H     2.2708168    3.2730502   -1.1768714 
H     0.3621916    1.4934150    2.2913610 
H     3.5346679    1.4877961   -1.5920008 
H    -0.2823023   -0.1051396   -2.8642346 
H     0.6571969   -2.2937665   -1.1268324 
C     0.8948877   -4.2057294   -0.1616714 
H     1.9633608   -4.3350207   -0.3976135 
H     0.6981794   -4.7222552    0.7874738 
H     0.3144297   -4.7027145   -0.9517503 
C     1.8184284    5.9337919    2.6292341 
F     1.8642436    5.7766897    3.9699728 
F     2.9146581    6.6248125    2.2488245 
F     0.7370049    6.7182185    2.3562350 
H     2.6582124    5.3479230    0.1083480 
H     0.7057040    3.6158288    3.5538792 
H     4.2652795    1.6391384   -3.9690564 
H     0.4845123   -0.0215536   -5.2490705 
C     2.8391034    0.9888929   -6.1952197 
F     2.2112380    0.1011217   -6.9977865 
F     2.5466084    2.2302689   -6.6548464 
F     4.1714413    0.8103284   -6.3352569 
C    -2.3260044   -3.1814388   -0.6889646 
C    -1.3934380   -2.4680226    2.2826856 
C    -1.7703995   -3.1069611   -2.1321951 
H    -2.5134635   -3.5450244   -2.8227098 
H    -1.6074404   -2.0573246   -2.4397829 
H    -0.8288418   -3.6617186   -2.2674802 
C    -2.8988070   -2.5074688    2.6178549 
H    -3.0122661   -2.5114449    3.7169225 
H    -3.4312726   -1.6245058    2.2372828 
H    -3.3897455   -3.4154608    2.2329278 
C    -2.4656192   -4.6507385   -0.2315484 
H    -3.0795026   -5.1914234   -0.9753853 
H    -1.5045360   -5.1767701   -0.1505528 
H    -2.9847525   -4.7270310    0.7368960 
C    -3.7295009   -2.5378152   -0.7114590 
H    -4.4024923   -3.1802557   -1.3082223 
H    -4.1684195   -2.4266312    0.2900906 
H    -3.6990842   -1.5469537   -1.1900534 
C    -0.7321558   -3.7700930    2.7770876 
H    -0.9618571   -3.8877305    3.8521849 
H    -1.1166785   -4.6624209    2.2583996 
H     0.3630898   -3.7384970    2.6793500 
C    -0.7591276   -1.2599219    3.0157985 
H    -1.2687468   -0.3218008    2.7339374 
H    -0.8794681   -1.3992714    4.1059578 
H     0.3176601   -1.1586104    2.8021819 
