112
Energy =
C     2.6502507    2.0225510   -0.6237393 
C     1.6833102    2.5595831   -1.5090049 
C     0.4560228    3.0946826   -1.0418667 
H     1.8389162    2.4622529   -2.5900076 
Pd    0.6758297    0.8881676   -0.4554251 
P    -1.5875281    0.3256807   -0.2177605 
P     1.5263442   -1.0351899    0.6163563 
H     2.6199949    2.3616647    0.4215136 
H     0.4238148    3.4189956    0.0090883 
C     6.4529406    0.3656975   -1.7761643 
C     6.1937212    0.7125458   -0.4414323 
C     4.9558693    1.2601733   -0.0836661 
C     3.9431503    1.4598872   -1.0509747 
C     4.2207386    1.1081106   -2.3942694 
C     5.4625578    0.5737415   -2.7516959 
H     7.4217915   -0.0593805   -2.0576620 
H     6.9587539    0.5585970    0.3264391 
H     4.7619553    1.5286633    0.9598938 
H     3.4548368    1.2326194   -3.1662943 
H     5.6573183    0.3084493   -3.7959812 
C    -2.4629706    5.0975163   -3.4986643 
C    -2.4266494    5.3027844   -2.1114412 
C    -1.4755473    4.6369348   -1.3295985 
C    -0.5500122    3.7373033   -1.9084375 
C    -0.5940163    3.5506932   -3.3098390 
C    -1.5344543    4.2271857   -4.0936374 
H    -3.2003125    5.6212378   -4.1153797 
H    -3.1310147    5.9950067   -1.6386231 
H    -1.4278287    4.8327754   -0.2527023 
H     0.1129177    2.8719479   -3.7975552 
H    -1.5453354    4.0730159   -5.1774328 
Fe   -0.5616762   -3.5316777    2.4065172 
C     0.2566798   -1.7707214    1.7108895 
C    -1.1752181   -1.8166333    1.4437181 
C    -1.8451711   -1.9826283    2.7070249 
C    -0.8624656   -2.0370069    3.7483077 
C     0.4299301   -1.9247217    3.1433322 
C    -0.6220364   -5.2563308    1.2768628 
C     0.5790795   -5.2118803    2.0661838 
C     0.1984473   -5.1224188    3.4428636 
C    -1.2360735   -5.1073991    3.5071468 
C    -1.7433717   -5.1855304    2.1669843 
C     2.8311378   -0.5661857    1.8262824 
C     2.6181247    0.5925528    2.6039902 
C     3.5626224    0.9879633    3.5586612 
C     4.7336837    0.2328135    3.7422279 
C     4.9451858   -0.9239737    2.9785655 
C     3.9966672   -1.3288323    2.0259874 
C     2.2885800   -2.3095928   -0.4572000 
C     3.4807708   -2.0062866   -1.1490543 
C     4.0488796   -2.9515055   -2.0119507 
C     3.4341467   -4.1993649   -2.2016274 
C     2.2483191   -4.5024079   -1.5160370 
C     1.6789072   -3.5612194   -0.6476746 
C    -1.8688566   -1.5122713    0.1411162 
H    -2.9257810   -2.0741407    2.8373949 
H    -1.0592608   -2.1887964    4.8110902 
H     1.3878325   -1.9352725    3.6645486 
H    -0.6769279   -5.3602397    0.1918556 
H     1.6014382   -5.2332516    1.6855743 
H     0.8790921   -5.0503551    4.2931222 
H    -1.8357215   -5.0198170    4.4151437 
H    -2.7959245   -5.1841363    1.8781880 
H     1.7051819    1.1817208    2.4592160 
H     4.1710826   -2.2337210    1.4362409 
H     3.9757302   -1.0450651   -1.0011150 
H     0.7672416   -3.7854149   -0.0933528 
H     3.3888388    1.8882157    4.1571849 
H     5.8535644   -1.5183300    3.1217848 
H     4.9783699   -2.7052558   -2.5354859 
H     1.7662824   -5.4764647   -1.6521226 
H     5.4776585    0.5463442    4.4817622 
H     3.8809388   -4.9348964   -2.8785704 
H    -2.9547955   -1.6144051    0.3172050 
C    -1.4703438   -2.4005013   -1.0468343 
H    -2.1865016   -2.2984746   -1.8770074 
H    -0.4659949   -2.1551685   -1.4310468 
H    -1.4692863   -3.4525715   -0.7204109 
H    -2.7468424    1.8386614   -1.6321519 
H    -3.0733142    0.3771114    1.6977528 
C    -4.9624559    0.6296440   -2.7765215 
C    -4.0976618    0.1367761   -1.6010666 
C    -2.6744320    0.7336111   -1.6839261 
C    -2.0071470    0.3928876   -3.0366539 
C    -2.8849105    0.8700309   -4.2077144 
C    -4.3069231    0.2913243   -4.1252048 
H    -5.0936232    1.7265428   -2.6935775 
H    -5.9701459    0.1818006   -2.7094198 
H    -4.0350294   -0.9672775   -1.6453651 
H    -4.5783791    0.3883526   -0.6383167 
H    -1.0044906    0.8545066   -3.0823738 
H    -1.8545866   -0.6971096   -3.1218103 
H    -2.9409311    1.9741096   -4.1851585 
H    -2.4073796    0.5933722   -5.1651812 
H    -4.2658213   -0.8097874   -4.2440811 
H    -4.9238490    0.6750443   -4.9571746 
C    -3.8090832    2.9993335    2.2682217 
C    -3.1886193    2.4166985    0.9838976 
C    -2.3793249    1.1392357    1.2908124 
C    -1.3040081    1.4372929    2.3634119 
C    -1.9298593    2.0110175    3.6450973 
C    -2.7495269    3.2753687    3.3461917 
H    -4.5553294    2.2822679    2.6637127 
H    -4.3619277    3.9235083    2.0209890 
H    -2.5205431    3.1651304    0.5228886 
H    -3.9883660    2.2159374    0.2518925 
H    -0.7267953    0.5281182    2.5966055 
H    -0.5890176    2.1724401    1.9407399 
H    -2.5834515    1.2414204    4.1012798 
H    -1.1344432    2.2249529    4.3819102 
H    -2.0679066    4.0747130    2.9921709 
H    -3.2282467    3.6543262    4.2666047 
