132
Energy =
C     1.1474677   -0.5218930   -3.4200856 
C     1.0040808    0.8601418   -3.1290478 
C     1.7936789    1.4851638   -2.1302752 
H     0.1842369    1.4203697   -3.5953663 
Pd    0.5442899   -0.1907414   -1.2486623 
P     0.3177963    0.7773497    0.8588362 
P    -0.5249897   -2.1978357   -0.6514924 
H     2.1226015   -0.9761338   -3.1883718 
H     2.7495823    1.0012576   -1.8812522 
C    -1.0934597   -2.7261067   -6.3668379 
C    -1.6537095   -1.5753578   -5.7860362 
C    -0.9371111   -0.8418960   -4.8352167 
C     0.3591965   -1.2433272   -4.4365546 
C     0.9170969   -2.3890589   -5.0481242 
C     0.2000687   -3.1252061   -5.9995209 
H    -1.6592630   -3.3003855   -7.1074316 
H    -2.6588424   -1.2506461   -6.0751194 
H    -1.3968220    0.0443732   -4.3861470 
H     1.9322696   -2.6959479   -4.7742123 
H     0.6547002   -4.0098150   -6.4575669 
C     1.7411408    5.6761495   -1.1538711 
C     2.7790380    4.8464654   -0.7035699 
C     2.7696049    3.4808754   -1.0107674 
C     1.7193120    2.9116704   -1.7678041 
C     0.6627624    3.7548051   -2.1834384 
C     0.6820999    5.1214753   -1.8904874 
H     1.7524237    6.7469688   -0.9271709 
H     3.6064323    5.2662082   -0.1217104 
H     3.5900645    2.8416958   -0.6686266 
H    -0.1841898    3.3420318   -2.7403464 
H    -0.1401011    5.7586490   -2.2324029 
Fe   -0.0713121   -1.0872674    3.8770210 
C    -0.5556570   -0.2490626    2.0905974 
C    -0.7063631   -1.6986016    2.0620079 
C    -1.6719165   -2.0424379    3.0782191 
C    -2.0905310   -0.8428372    3.7429523 
C    -1.4023925    0.2616265    3.1478520 
C     1.5571270   -2.2350901    4.3503645 
C     1.9316815   -0.8546196    4.2611795 
C     1.1408308   -0.1164681    5.2053358 
C     0.2786771   -1.0449147    5.8818557 
C     0.5348314   -2.3553000    5.3519081 
C    -0.7760553    2.2463078    0.7537276 
C    -0.3399084    3.5685358    0.9504798 
C    -1.2445145    4.6426060    0.8815818 
C    -2.5917393    4.3711573    0.5588740 
C    -3.0580987    3.0521739    0.3419865 
C    -2.1312609    2.0052047    0.4459888 
C     1.8940610    1.2964542    1.6218215 
C     1.9257440    2.1394514    2.7499847 
C     3.1400985    2.4727910    3.3668766 
C     4.3364317    1.9349324    2.8312728 
C     4.3316407    1.0499966    1.7283923 
C     3.0926502    0.7461083    1.1363364 
C    -0.0194808   -2.6604924    1.1182987 
H    -1.9972962   -3.0503103    3.3390976 
H    -2.7865399   -0.7879396    4.5818549 
H    -1.5101994    1.3137726    3.4158496 
H     1.9756139   -3.0499708    3.7561216 
H     2.6786522   -0.4369495    3.5856394 
H     1.1864527    0.9593317    5.3779981 
H    -0.4572788   -0.7972125    6.6489230 
H     0.0269815   -3.2758654    5.6461789 
H     0.7131950    3.7809333    1.1562027 
H    -2.4834409    0.9760449    0.3130502 
H     0.9930817    2.5283100    3.1718936 
H     3.0602360    0.0505842    0.2884830 
H     1.0618994   -2.4318196    1.1226490 
H    -0.2146187   -3.1304776   -2.7991293 
H    -2.4119581   -1.0205538    0.0748051 
C    -4.7414574   -2.4463767    0.0661825 
C    -3.2939711   -2.9714767    0.0029553 
C    -2.3694077   -1.8951954   -0.6055333 
C    -2.8603846   -1.4281368   -1.9925199 
C    -4.3217983   -0.9503142   -1.9364254 
C    -5.2452567   -2.0136480   -1.3203952 
H    -4.7816714   -1.5836819    0.7609096 
H    -5.3987430   -3.2258886    0.4913862 
H    -3.2675740   -3.8910613   -0.6062569 
H    -2.9521934   -3.2391951    1.0152564 
H    -2.2059502   -0.6139964   -2.3522864 
H    -2.7656779   -2.2549742   -2.7224087 
H    -4.3728481   -0.0258517   -1.3287173 
H    -4.6624143   -0.6794796   -2.9523081 
H    -5.2807172   -2.8980053   -1.9869481 
H    -6.2785893   -1.6292390   -1.2513328 
C    -0.4934436   -5.9053221   -2.8054455 
C    -0.9913822   -4.8599996   -1.7888905 
C    -0.0911252   -3.6041736   -1.8062301 
C     1.4126164   -3.9456980   -1.6449735 
C     1.8694989   -5.0368319   -2.6312821 
C     0.9737693   -6.2822430   -2.5524817 
H    -0.5942072   -5.4919047   -3.8282416 
H    -1.1411299   -6.7989433   -2.7568662 
H    -1.0129438   -5.3134249   -0.7827030 
H    -2.0274834   -4.5747949   -2.0355963 
H     2.0153295   -3.0271379   -1.7781157 
H     1.6086355   -4.3003851   -0.6159621 
H     1.8326612   -4.6380210   -3.6611460 
H     2.9237277   -5.2965610   -2.4264154 
H     1.0682663   -6.7464661   -1.5504546 
H     1.3091866   -7.0390668   -3.2837120 
C    -0.2073958   -4.1266476    1.5456312 
H     0.1043133   -4.2304852    2.5994171 
H    -1.2553911   -4.4550212    1.4679713 
H     0.4097354   -4.8083441    0.9416883 
C    -0.8169988    6.0609785    1.1744249 
H    -0.9265095    6.7092120    0.2867229 
H    -1.4508127    6.4982936    1.9653106 
H     0.2364428    6.0984526    1.4931422 
C    -4.5167380    2.7866776    0.0489806 
H    -4.8204175    1.7962700    0.4265484 
H    -5.1511453    3.5566508    0.5171646 
H    -4.7198675    2.8021979   -1.0385505 
O    -3.4799658    5.4254666    0.5357117 
C    -3.7584172    5.9748574   -0.7582479 
H    -4.4381650    6.8246247   -0.5961793 
H    -2.8321083    6.3325824   -1.2485466 
H    -4.2486017    5.2341634   -1.4184857 
C     3.1963966    3.3478631    4.5959542 
H     2.1840401    3.5858489    4.9603572 
H     3.7610475    2.8472991    5.4010688 
H     3.7156989    4.3009729    4.3889594 
C     5.6190777    0.4436562    1.2214250 
H     6.1117327    1.1044003    0.4830478 
H     6.3280846    0.2911136    2.0513834 
H     5.4324611   -0.5229122    0.7250871 
O     5.5189462    2.2212972    3.4739064 
C     6.2959000    3.2904077    2.9151716 
H     7.1744250    3.4075608    3.5666008 
H     6.6301818    3.0551690    1.8870357 
H     5.7199477    4.2354577    2.8984058 
