104
Energy =
C    -0.9084235    2.8312301    0.9604357 
C    -2.2480800    2.4939696    0.5602200 
C    -2.9738623    1.4951902    1.2251703 
H    -2.6792602    2.9764274   -0.3262027 
Pd   -0.8770045    0.7616264    0.2190487 
P    -1.1336978   -1.2549964   -1.0058144 
P     1.3082618    0.4208309    0.9313671 
H    -0.6666046    2.7412490    2.0286110 
H    -2.5508106    1.1281306    2.1731255 
C     1.5485992    5.5943360   -1.2547004 
C     0.5446487    4.8656840   -1.9142046 
C    -0.2612087    3.9722676   -1.2013160 
C    -0.0896060    3.7917355    0.1933718 
C     0.9154824    4.5433658    0.8426938 
C     1.7291518    5.4293406    0.1266804 
H     2.1826191    6.2893880   -1.8144836 
H     0.3950777    4.9904773   -2.9919941 
H    -1.0178277    3.3875931   -1.7376417 
H     1.0430842    4.4388654    1.9246294 
H     2.5026535    6.0002965    0.6506187 
C    -7.0294590    0.2320345    0.6173596 
C    -6.2841929   -0.2377253    1.7096573 
C    -4.9631819    0.1854950    1.8864867 
C    -4.3572226    1.0885315    0.9780673 
C    -5.1305392    1.5680172   -0.1074953 
C    -6.4479854    1.1387663   -0.2864746 
H    -8.0634461   -0.0977956    0.4740067 
H    -6.7343516   -0.9346015    2.4238671 
H    -4.3794795   -0.1882804    2.7354490 
H    -4.7010858    2.2830544   -0.8155663 
H    -7.0317477    1.5181139   -1.1314393 
Fe    3.3568530   -2.3802037    0.1523572 
C     1.7739102   -1.3382993    0.8817291 
C     1.3484672   -2.2694476   -0.1528066 
C     1.7292955   -3.5902252    0.2801348 
C     2.3809367   -3.4859379    1.5543721 
C     2.4227323   -2.1029695    1.9266199 
C     4.3225466   -2.3858901   -1.6638447 
C     4.6068839   -1.1774241   -0.9502913 
C     5.2098105   -1.5340430    0.3037260 
C     5.2968201   -2.9658272    0.3616479 
C     4.7429236   -3.4934444   -0.8532819 
C     1.2570250    0.8058217    2.7275616 
C     0.5076263   -0.0528754    3.5644801 
C     0.3161984    0.2638320    4.9145329 
C     0.8598475    1.4441914    5.4478067 
C     1.5971283    2.3040302    4.6219688 
C     1.7939574    1.9919011    3.2677541 
C     2.6626164    1.4008347    0.1947673 
C     2.4645914    1.9372091   -1.0910518 
C     3.4944484    2.6455245   -1.7256809 
C     4.7231718    2.8281148   -1.0747992 
C     4.9258831    2.2940553    0.2089386 
C     3.9030625    1.5775884    0.8427736 
C     0.6206163   -1.8970991   -1.4206846 
H     1.5869689   -4.5146543   -0.2813026 
H     2.8097990   -4.3137182    2.1219489 
H     2.8546403   -1.6901492    2.8393441 
H     3.8693910   -2.4488929   -2.6544840 
H     4.3976550   -0.1655122   -1.2985829 
H     5.5423614   -0.8415965    1.0775447 
H     5.6906203   -3.5524783    1.1936942 
H     4.6436899   -4.5505228   -1.1070197 
H     0.0771220   -0.9722950    3.1555042 
H     2.3657644    2.6750324    2.6341509 
H     1.4970403    1.8072680   -1.5860267 
H     4.0723971    1.1458752    1.8344411 
H     1.0866800   -0.9644394   -1.7889215 
C     0.7751349   -2.9679641   -2.5163486 
H     1.8392103   -3.2502531   -2.5720921 
H     0.1973178   -3.8794722   -2.3117836 
H     0.4764014   -2.5867680   -3.5037656 
H    -0.2591643   -0.4141897    5.5535682 
H     2.0263632    3.2247266    5.0307891 
H     3.3298790    3.0659926   -2.7224387 
H     5.8879186    2.4300878    0.7137771 
C    -1.8937448   -0.7786467   -2.7075417 
C    -2.1146166   -2.6375213   -0.1196297 
C    -2.3610524   -1.9720344   -3.5667284 
H    -2.7173507   -1.5895395   -4.5412967 
H    -1.5595897   -2.6974997   -3.7684805 
H    -3.2024165   -2.5078155   -3.0989147 
C    -1.8475523   -4.0583853   -0.6542154 
H    -2.4980470   -4.7674056   -0.1093157 
H    -2.0777777   -4.1549644   -1.7273392 
H    -0.8060016   -4.3700519   -0.4801035 
C    -3.0892162    0.1681550   -2.4567698 
H    -3.4862485    0.5103279   -3.4303183 
H    -3.9122981   -0.3103365   -1.9080434 
H    -2.7698715    1.0577826   -1.8863655 
C    -0.8135868    0.0415767   -3.4556526 
H    -1.2687690    0.4936602   -4.3554286 
H    -0.4308787    0.8648503   -2.8228579 
H     0.0399644   -0.5690978   -3.7905670 
C    -1.6933246   -2.5603514    1.3689105 
H    -2.2484561   -3.3277727    1.9394269 
H    -0.6156715   -2.7478928    1.5062679 
H    -1.9361626   -1.5708313    1.7953073 
C    -3.6218552   -2.3238077   -0.2128828 
H    -4.1673920   -2.9982260    0.4721558 
H    -3.8457591   -1.2909327    0.0944413 
H    -4.0232298   -2.4884878   -1.2255455 
H     0.7096460    1.6905216    6.5038260 
H     5.5262146    3.3866158   -1.5665978 
