116
Energy =
C     2.3293065   -1.0618281   -1.6269620 
C     1.4526001   -1.6993183   -2.5762743 
C     0.8159565   -0.9776991   -3.5872502 
H     1.2939272   -2.7833758   -2.5102573 
Pd    0.2923830   -0.4280348   -1.1074221 
P    -2.0824109   -0.3638255   -0.7924985 
P     0.9046240    0.8112862    0.7622945 
H     2.8170745   -0.1476869   -1.9889390 
H     1.0684378    0.0897209   -3.6710655 
C     4.7932051   -3.4070586    1.0329656 
C     5.2616559   -2.1924826    0.5100352 
C     4.4530736   -1.4348826   -0.3470262 
C     3.1516524   -1.8666583   -0.6943399 
C     2.6950394   -3.0928874   -0.1560817 
C     3.5069228   -3.8556461    0.6902014 
H     5.4256561   -4.0027058    1.6989167 
H     6.2673515   -1.8386060    0.7598535 
H     4.8404640   -0.5022785   -0.7691662 
H     1.6881545   -3.4512376   -0.3959543 
H     3.1315959   -4.8022406    1.0925869 
C    -1.3483133   -2.4846134   -6.9731700 
C    -1.0999459   -1.1103137   -6.8322912 
C    -0.3998039   -0.6375857   -5.7184451 
C     0.0660988   -1.5247902   -4.7162774 
C    -0.1755529   -2.9117788   -4.8870897 
C    -0.8779590   -3.3823265   -5.9989357 
H    -1.8957404   -2.8582203   -7.8445226 
H    -1.4498074   -0.4073885   -7.5950771 
H    -0.2063004    0.4355841   -5.6133270 
H     0.1942550   -3.6295597   -4.1483567 
H    -1.0537154   -4.4567284   -6.1144118 
Fe   -1.4964758    1.8634505    3.3971957 
C    -0.4714404    1.6741127    1.6135714 
C    -1.8972165    1.4224983    1.4498410 
C    -2.5963943    2.6125206    1.8723713 
C    -1.6420268    3.5795966    2.3191273 
C    -0.3414224    3.0023883    2.1917118 
C    -2.2968767    0.3875270    4.5760684 
C    -0.9061149    0.5537231    4.8778180 
C    -0.6872576    1.9117082    5.2820982 
C    -1.9528885    2.5872511    5.2434490 
C    -2.9478019    1.6458158    4.8081433 
C    -2.5678537    0.1465211    0.9773046 
H    -3.6771690    2.7516312    1.8960680 
H    -1.8716407    4.5642113    2.7300817 
H     0.5928227    3.4937282    2.4655012 
H    -2.7743273   -0.5361660    4.2429311 
H    -0.1450576   -0.2215493    4.8193406 
H     0.2684265    2.3516659    5.5723689 
H    -2.1282519    3.6377989    5.4821709 
H    -4.0087130    1.8595144    4.6638792 
H    -2.1157832   -0.6853083    1.5489894 
C    -4.0758800    0.1996058    1.2945362 
H    -4.5754774    1.0206945    0.7578232 
H    -4.5971239   -0.7307026    1.0461194 
H    -4.2006632    0.3853098    2.3747444 
C    -2.5790834   -2.2291737   -0.8953230 
C    -3.0680971    0.7295901   -2.0152516 
C    -1.5177482   -2.9849463   -0.0598798 
H    -1.7101062   -4.0719295   -0.1235564 
H    -0.4969024   -2.7891098   -0.4381171 
H    -1.5430316   -2.7031432    1.0070893 
C    -2.3581637    0.6583754   -3.3822744 
H    -2.8797171    1.3227908   -4.0957137 
H    -1.3118110    0.9989600   -3.2980121 
H    -2.3556562   -0.3545075   -3.8102383 
C    -3.9756204   -2.6343380   -0.3793365 
H    -4.1393776   -3.6968534   -0.6385853 
H    -4.0508642   -2.5588209    0.7171040 
H    -4.7916780   -2.0547483   -0.8365689 
C    -2.4421840   -2.6592946   -2.3685438 
H    -2.4814850   -3.7621935   -2.4326353 
H    -3.2542045   -2.2631176   -2.9995073 
H    -1.4830999   -2.3293429   -2.7941438 
C    -4.5499131    0.3357923   -2.1860242 
H    -5.0334982    1.0658421   -2.8613160 
H    -4.6603591   -0.6587242   -2.6481412 
H    -5.1060373    0.3435714   -1.2363767 
C    -2.9540890    2.1834236   -1.5026151 
H    -3.3126854    2.8676974   -2.2931696 
H    -3.5624125    2.3634034   -0.6039764 
H    -1.9085306    2.4509132   -1.2691503 
H     1.9748539    2.9336488    1.1502605 
C     1.9476336    4.3858033   -1.2129506 
C     1.1949598    3.0904632   -0.8605446 
C     1.9312353    2.3012817    0.2443556 
C     3.3839377    2.0034354   -0.1658510 
C     4.1291614    3.3133484   -0.4870363 
C     3.4114283    4.1068703   -1.5911116 
H     1.9175190    5.0654691   -0.3386733 
H     1.4259805    4.9078798   -2.0352083 
H     1.1105843    2.4429800   -1.7577021 
H     0.1647560    3.3245496   -0.5384831 
H     3.9131575    1.4456994    0.6260230 
H     3.3875122    1.3675477   -1.0669931 
H     4.1941784    3.9304497    0.4306879 
H     5.1674758    3.0838952   -0.7868764 
H     3.4401830    3.5237104   -2.5333816 
H     3.9433014    5.0539492   -1.7909315 
H     2.7856312   -0.4719458    1.4399351 
C     1.9496622   -2.1694265    3.5140979 
C     1.1270132   -1.3513438    2.5017940 
C     1.9108076   -0.1143762    2.0162200 
C     2.4018143    0.7567754    3.1891389 
C     3.2498998   -0.0837353    4.1631042 
C     2.4829088   -1.3134650    4.6757684 
H     2.8058161   -2.6193587    2.9786873 
H     1.3399148   -3.0072566    3.8989716 
H     0.1749136   -1.0129244    2.9518766 
H     0.8633796   -1.9796973    1.6329678 
H     2.9995088    1.6081857    2.8168467 
H     1.5228235    1.1835205    3.7064817 
H     4.1658964   -0.4190891    3.6381879 
H     3.5801337    0.5461355    5.0087684 
H     1.6447866   -0.9802623    5.3179393 
H     3.1363095   -1.9252138    5.3229275 
