124
Energy =
C     1.6697803    1.7502917    2.4146264 
C     1.5968994    0.4902337    3.0751658 
C     2.2937467   -0.6336194    2.5826986 
H     0.9047875    0.3664397    3.9171782 
Pd    0.7737528    0.1933737    1.0416215 
P    -0.0463056   -1.7730787    0.0528743 
P    -0.0159406    1.6160160   -0.6525831 
H     2.5954677    1.9554654    1.8599896 
H     3.1045815   -0.4375597    1.8643392 
C    -0.3623676    5.2801470    3.8294083 
C     0.8142153    5.3868361    3.0731052 
C     1.4639357    4.2336297    2.6148191 
C     0.9459410    2.9465354    2.8895460 
C    -0.2471767    2.8570697    3.6446951 
C    -0.8852424    4.0084602    4.1179479 
H    -0.8677098    6.1796366    4.1951669 
H     1.2368740    6.3722306    2.8508592 
H     2.3969510    4.3273076    2.0496744 
H    -0.6868508    1.8764211    3.8570082 
H    -1.8024221    3.9149480    4.7085908 
C     2.5924560   -4.5145568    4.4212452 
C     3.3335904   -4.2039647    3.2705432 
C     3.2271879   -2.9354329    2.6898538 
C     2.3632152   -1.9527435    3.2307646 
C     1.6332272   -2.2781682    4.3979246 
C     1.7531142   -3.5411065    4.9874959 
H     2.6791811   -5.5028591    4.8837872 
H     4.0061174   -4.9484083    2.8320701 
H     3.8245464   -2.6922155    1.8055298 
H     0.9683477   -1.5392350    4.8556434 
H     1.1881374   -3.7690518    5.8971663 
Fe   -2.7278848    0.6524354   -2.9974124 
C    -0.9138822    0.7938429   -2.0231657 
C    -1.4584912   -0.5571471   -1.9769073 
C    -1.6232868   -1.0094365   -3.3356736 
C    -1.2243213    0.0441482   -4.2211573 
C    -0.8124377    1.1596612   -3.4250941 
C    -4.6075367   -0.0684620   -3.3090412 
C    -4.5572067    0.6574388   -2.0718658 
C    -4.1570042    2.0019690   -2.3724349 
C    -3.9419537    2.1078211   -3.7839172 
C    -4.2246537    0.8266306   -4.3658091 
C    -1.7262048   -1.3630171   -0.7301959 
H    -2.0375587   -1.9689869   -3.6476900 
H    -1.2739612    0.0174891   -5.3112012 
H    -0.4601693    2.1163274   -3.8134793 
H    -4.8733858   -1.1202258   -3.4315156 
H    -4.7940248    0.2642737   -1.0811728 
H    -4.0435654    2.8086883   -1.6515555 
H    -3.6177084    3.0015772   -4.3197763 
H    -4.1424781    0.5687616   -5.4232675 
H    -2.1756954   -0.6874598    0.0204398 
C    -2.7006195   -2.5275969   -0.9806583 
H    -3.6071827   -2.1265138   -1.4647702 
H    -2.2758634   -3.2989784   -1.6413124 
H    -3.0029271   -3.0137585   -0.0413492 
H     0.9929427    2.8709692   -2.4555639 
C     3.5112625    1.7702176   -2.9614696 
C     2.3451526    1.2086225   -2.1294940 
C     1.4396942    2.3393662   -1.5939541 
C     2.2617803    3.3594658   -0.7858578 
C     3.4140690    3.9285275   -1.6349423 
C     4.3217892    2.8088247   -2.1696691 
H     3.1045673    2.2412929   -3.8778390 
H     4.1612311    0.9409818   -3.2952213 
H     2.7417965    0.6376052   -1.2651729 
H     1.7535317    0.5012533   -2.7370842 
H     1.6210196    4.1772145   -0.4132718 
H     2.6858392    2.8542180    0.0997921 
H     2.9918241    4.5003470   -2.4844877 
H     3.9981916    4.6462904   -1.0313551 
H     4.8214722    2.3076737   -1.3165295 
H     5.1238024    3.2322416   -2.7999723 
H    -0.3534052    3.5178477    0.7272557 
C    -3.1043591    3.6813602    1.2776542 
C    -2.2701497    2.5246203    0.6965871 
C    -1.0137761    3.0515391   -0.0295129 
C    -1.3612197    4.0992958   -1.1047967 
C    -2.1621331    5.2592296   -0.4811667 
C    -3.4295377    4.7642699    0.2347715 
H    -2.5284357    4.1428310    2.1001079 
H    -4.0339302    3.2827845    1.7232756 
H    -2.8679700    1.9297117   -0.0190561 
H    -1.9624146    1.8345528    1.5050582 
H    -0.4413019    4.4951662   -1.5711651 
H    -1.9435597    3.6111127   -1.9088088 
H    -1.5142080    5.7830671    0.2487164 
H    -2.4224019    5.9958957   -1.2624591 
H    -4.1448840    4.3689934   -0.5124038 
H    -3.9431889    5.6112643    0.7233033 
H     1.0571707   -1.4362749   -1.9738803 
C     1.5509834   -3.6750911   -3.4328293 
C     0.5907067   -3.5174936   -2.2380845 
C     1.0542609   -2.3477451   -1.3425479 
C     2.4994198   -2.5706018   -0.8486066 
C     3.4613458   -2.7581320   -2.0357406 
C     2.9992923   -3.8927166   -2.9648824 
H     1.4960628   -2.7637165   -4.0609489 
H     1.2192655   -4.5174212   -4.0659986 
H     0.5734857   -4.4561708   -1.6580738 
H    -0.4337332   -3.3447179   -2.6025138 
H     2.8181229   -1.7117175   -0.2301949 
H     2.5297409   -3.4650394   -0.1967395 
H     3.5090709   -1.8101112   -2.6076907 
H     4.4827190   -2.9541707   -1.6621622 
H     3.0638862   -4.8564610   -2.4221236 
H     3.6760451   -3.9746442   -3.8339412 
H     0.6547208   -3.0821243    1.8994049 
C    -0.7610760   -5.4860372    2.0742389 
C    -0.5370484   -4.5435316    0.8761192 
C    -0.3078309   -3.0922180    1.3540446 
C    -1.3963905   -2.5945695    2.3415727 
C    -1.6507328   -3.5932863    3.4850526 
C    -1.9256600   -5.0082274    2.9543353 
H     0.1645183   -5.5243514    2.6817911 
H    -0.9445996   -6.5103630    1.7034174 
H    -1.4065369   -4.6045636    0.1989476 
H     0.3410284   -4.8829280    0.3015685 
H    -1.0930222   -1.6100588    2.7490632 
H    -2.3480748   -2.4302268    1.8030645 
H    -0.7629202   -3.6259145    4.1404428 
H    -2.4937580   -3.2332815    4.1020426 
H    -2.8625124   -5.0117646    2.3614686 
H    -2.0830753   -5.7055059    3.7963429 
