98
Energy =
C    -0.8723870   -1.9407042   -2.2449438 
C    -0.6285932   -0.6972840   -2.8735128 
C     0.6949459   -0.1930979   -2.9919918 
H    -1.4760755   -0.0730113   -3.1823630 
Pd    0.1083687   -0.4320998   -0.8143407 
P     1.7375359    1.0569293    0.0382481 
P    -1.0223135   -1.0582718    1.1594337 
H    -0.0275946   -2.6430603   -2.1855287 
H     1.5037482   -0.9370151   -3.0030234 
C    -4.7059120   -3.8422662   -1.8154840 
C    -4.6364175   -2.4443627   -1.9472248 
C    -3.3989212   -1.8111395   -2.0969047 
C    -2.1995070   -2.5615201   -2.1063329 
C    -2.2853718   -3.9666830   -1.9770296 
C    -3.5264653   -4.6012102   -1.8398586 
H    -5.6760765   -4.3357612   -1.6996205 
H    -5.5538282   -1.8468113   -1.9335424 
H    -3.3621856   -0.7209388   -2.1892310 
H    -1.3663808   -4.5633506   -1.9814281 
H    -3.5727494   -5.6911570   -1.7489425 
C     1.7016827    3.5444067   -4.8733472 
C     0.4303865    3.3725525   -4.2986229 
C     0.0945713    2.1670969   -3.6754945 
C     1.0189298    1.0969799   -3.6267229 
C     2.2924106    1.2828804   -4.2121337 
C     2.6317959    2.4954809   -4.8262255 
H     1.9636099    4.4919921   -5.3546707 
H    -0.2978119    4.1894920   -4.3273596 
H    -0.8870415    2.0624093   -3.2009733 
H     3.0182090    0.4622637   -4.1939710 
H     3.6220793    2.6184719   -5.2765820 
Fe    1.1024481    0.4020333    3.3267580 
C    -0.0321567   -1.1144440    2.6839009 
C    -0.4124675   -0.7390683    4.0324248 
H    -1.3900053   -0.3770671    4.3546769 
C     0.7353122   -0.8915407    4.8776817 
H     0.7760849   -0.6563391    5.9427116 
C     1.8248327   -1.3660928    4.0766787 
H     2.8413369   -1.5562012    4.4254603 
C     1.3593789   -1.5112542    2.7297001 
C     1.6293034    1.5701055    1.7861997 
C     2.6659245    1.5776030    2.8010222 
H     3.7010772    1.2579320    2.6746971 
C     2.0936983    2.0581140    4.0241037 
H     2.6162122    2.1479392    4.9780815 
C     0.7143052    2.3623271    3.7859310 
H    -0.0003356    2.7267170    4.5258602 
C     0.4239591    2.0718450    2.4132645 
H     1.9497616   -1.8396308    1.8744143 
H    -0.5402999    2.2000642    1.9212873 
C     2.0830791    2.7094069   -0.7864607 
C     3.5300188    2.9965490   -0.3379831 
C     4.3384628    1.7060605   -0.5560751 
C     3.5266487    0.4511290   -0.1054470 
H     2.0870313    2.4935258   -1.8700914 
H     3.9629554    3.8304569   -0.9176782 
H     3.5391558    3.3006670    0.7254718 
H     4.5464313    1.6041512   -1.6372912 
H     5.3147959    1.7388957   -0.0425898 
H     3.8091906    0.1431651    0.9163496 
C    -2.0229842   -2.6410153    1.2848486 
C    -3.1350697   -2.2623567    2.2842630 
C    -3.6666150   -0.8822819    1.8599087 
C    -2.4736699    0.0742996    1.5793553 
H    -2.4891034   -2.7694709    0.2927725 
H    -3.9419518   -3.0159987    2.2783265 
H    -2.7277625   -2.2328528    3.3127114 
H    -4.2502628   -1.0001507    0.9275209 
H    -4.3450934   -0.4532353    2.6170325 
H    -2.1748355    0.5898963    2.5100164 
C    -2.7549609    1.1371334    0.4987211 
H    -1.8201964    1.6822371    0.2650291 
H    -3.0429425    0.6238728   -0.4378066 
C    -3.8473123    2.1343365    0.9071552 
H    -4.0057967    2.8906097    0.1192068 
H    -4.8120399    1.6286343    1.0859778 
H    -3.5696791    2.6659001    1.8356824 
C    -1.1796684   -3.8845603    1.6084946 
H    -0.4040176   -3.9971963    0.8255369 
H    -0.6393819   -3.7260433    2.5605904 
C    -2.0105796   -5.1729657    1.6954019 
H    -2.7264324   -5.1347686    2.5346396 
H    -2.5861804   -5.3385980    0.7680550 
H    -1.3574922   -6.0480149    1.8546908 
C     1.0406949    3.8010823   -0.4969130 
H     0.9713012    3.9656650    0.5940749 
H     0.0486522    3.4375714   -0.8280832 
C     1.3559216    5.1342181   -1.1912125 
H     2.2859123    5.5821786   -0.8005462 
H     1.4759627    4.9966880   -2.2796667 
H     0.5421361    5.8608004   -1.0248567 
C     3.7623160   -0.7430311   -1.0500682 
H     4.8585026   -0.8628950   -1.1476463 
H     3.4042918   -0.4729091   -2.0600369 
C     3.1512979   -2.0757200   -0.6112495 
H     3.3556174   -2.8682750   -1.3514646 
H     3.5640020   -2.4075990    0.3581141 
H     2.0486384   -1.9934451   -0.5019108 
