122
Energy =
C     1.2181482   -1.2061543   -3.1317109 
C     1.1779151    0.2012330   -3.1305399 
C     1.9807126    0.9540366   -2.2094690 
H     0.4663005    0.7316539   -3.7763157 
Pd    0.5452967   -0.2809885   -1.0729441 
P     1.1359901    0.5674480    1.0264868 
P    -1.3190110   -1.7217462   -0.6900809 
H     2.0645082   -1.6750611   -2.6061099 
H     2.9555836    0.5270327   -1.9301379 
C    -0.7130278   -3.9055618   -5.8405876 
C     0.3891684   -4.3160843   -5.0762312 
C     0.9810095   -3.4299124   -4.1710482 
C     0.4975696   -2.1074642   -4.0323721 
C    -0.6179718   -1.7080948   -4.8066129 
C    -1.2193894   -2.6019789   -5.6956208 
H    -1.1811192   -4.5993292   -6.5465840 
H     0.7820713   -5.3323377   -5.1775082 
H     1.8308765   -3.7569000   -3.5624721 
H    -1.0206853   -0.6963615   -4.7126452 
H    -2.0835591   -2.2803738   -6.2857574 
C     1.7158537    5.2496388   -2.0795140 
C     0.5438566    4.4768067   -2.1205427 
C     0.6242172    3.0808127   -2.1558022 
C     1.8797737    2.4281717   -2.1429724 
C     3.0491836    3.2155155   -2.0829451 
C     2.9658235    4.6139178   -2.0588090 
H     1.6542618    6.3411961   -2.0406704 
H    -0.4356836    4.9660906   -2.1148408 
H    -0.2952668    2.4833769   -2.1578147 
H     4.0299238    2.7302983   -2.0587866 
H     3.8836853    5.2087216   -2.0121776 
Fe   -3.1819058    2.2549352    1.9324172 
C    -1.5172598    1.2960756    1.3186351 
C    -2.6775024    0.4400264    1.1202772 
C    -3.6097663    1.1543476    0.2827933 
H    -4.5798263    0.7721269   -0.0371630 
C    -3.0222814    2.4052744   -0.0876392 
H    -3.4863194    3.1728653   -0.7093583 
C    -1.7380760    2.4977631    0.5423542 
H    -1.0727087    3.3596121    0.4718664 
C    -2.7551647    3.1947223    3.6981449 
H    -1.7674498    3.3143165    4.1484220 
C    -3.6584849    2.1027488    3.9235039 
H    -3.4825765    1.2569567    4.5907268 
C    -4.8381952    2.3305056    3.1353155 
H    -5.7130574    1.6801741    3.0781320 
C    -4.6653285    3.5680549    2.4301870 
H    -5.3767052    4.0134203    1.7323613 
C    -3.3783016    4.1016669    2.7766246 
H    -2.9392299    5.0225616    2.3878926 
C    -2.8497242   -0.9624444    1.5845121 
C    -2.1863499   -2.0353932    0.9233885 
C    -2.3154474   -3.3450819    1.4283367 
H    -1.8125955   -4.1769150    0.9279164 
C    -3.1101897   -3.6071037    2.5534962 
H    -3.1930699   -4.6315956    2.9302349 
C    -3.8157906   -2.5642584    3.1657639 
H    -4.4635006   -2.7633577    4.0256831 
C    -3.6823142   -1.2578743    2.6783298 
H    -4.2126397   -0.4295738    3.1534955 
C     2.2079418   -0.6708671    1.8748699 
C     2.5118651   -1.8607307    1.1954639 
H     2.0902687   -2.0272680    0.1974513 
C     3.3672832   -2.8123388    1.7682657 
C     3.9296337   -2.5859106    3.0315040 
H     4.5977900   -3.3238295    3.4830108 
C     3.6361546   -1.3916898    3.7078791 
C     2.7888178   -0.4333846    3.1351295 
H     2.6006111    0.5016353    3.6715820 
C     2.2442799    2.0429027    1.0915250 
C     1.7296118    3.3444132    1.2254066 
H     0.6576406    3.5196033    1.3204015 
C     2.5864324    4.4514383    1.2405895 
C     3.9722907    4.2842356    1.1219154 
H     4.6411697    5.1486770    1.1316290 
C     4.4861760    2.9908695    0.9631907 
C     3.6346429    1.8776022    0.9409457 
H     4.0703666    0.8815412    0.8184852 
C    -0.3025596    1.0257188    2.1788436 
H    -0.0035808    1.9834654    2.6370587 
C    -0.5073065    0.0011668    3.3097891 
H    -1.4611835    0.2262805    3.8121080 
H    -0.5551277   -1.0353973    2.9419231 
H     0.3009198    0.0658965    4.0542149 
C     2.0063531    5.8398484    1.4085704 
F     2.6738957    6.7479742    0.6603751 
F     0.6997641    5.8804904    1.0369295 
F     2.0688212    6.2509838    2.6948487 
C     5.9643911    2.7948844    0.7051629 
F     6.2215954    2.8432075   -0.6326261 
F     6.7115953    3.7512938    1.2900871 
F     6.3942601    1.5910578    1.1464699 
C     3.6399423   -4.1007906    1.0235294 
F     2.6820901   -5.0304166    1.2964755 
F     3.6177926   -3.9078809   -0.3217513 
F     4.8278595   -4.6386093    1.3509255 
C     4.2769156   -1.0921660    5.0495617 
F     3.4010724   -0.4656343    5.8719263 
F     4.6993776   -2.2154960    5.6648080 
F     5.3444236   -0.2743303    4.9023417 
C    -0.4036428   -6.0812270   -2.0594334 
C     0.4050934   -5.4350027   -1.1119509 
C     0.1210040   -4.1157261   -0.7371330 
C    -0.9773629   -3.4283021   -1.2965673 
C    -1.7706061   -4.0759515   -2.2624352 
C    -1.4829735   -5.3970367   -2.6355528 
H    -0.1867927   -7.1133485   -2.3535588 
H     1.2553097   -5.9507419   -0.6564774 
H     0.7390762   -3.6328305    0.0243212 
H    -2.6038056   -3.5523968   -2.7380772 
H    -2.1045622   -5.8875696   -3.3914322 
C    -4.8797258   -0.1250861   -3.2344737 
C    -3.6255783    0.4982627   -3.3077547 
C    -2.5562980    0.0065679   -2.5469938 
C    -2.7269319   -1.1121713   -1.7128217 
C    -3.9960436   -1.7228134   -1.6265575 
C    -5.0635620   -1.2333575   -2.3909252 
H    -5.7181644    0.2577972   -3.8255359 
H    -3.4821343    1.3753741   -3.9475032 
H    -1.5837591    0.5104389   -2.5694176 
H    -4.1522239   -2.5711893   -0.9514727 
H    -6.0448582   -1.7142945   -2.3225771 
