124
Energy =
C     3.1234924   -0.9265857   -1.4308608 
C     3.0035719    0.4655577   -1.6901713 
C     3.0706605    1.4123214   -0.6405536 
H     2.7464402    0.7971746   -2.7045118 
Pd    1.3297849   -0.0487287   -0.3609384 
P    -0.2179924    1.5023751    0.5923232 
P    -0.0379009   -1.9338360   -0.0003743 
H     3.7046863   -1.2167703   -0.5433392 
H     3.5764239    1.0928802    0.2830329 
C     2.9778362   -3.8958977   -4.5491096 
C     2.1336617   -2.7737477   -4.6115234 
C     2.1769040   -1.8037654   -3.6052904 
C     3.0571424   -1.9370322   -2.5076832 
C     3.9085076   -3.0630790   -2.4641923 
C     3.8716691   -4.0311152   -3.4768437 
H     2.9410070   -4.6569184   -5.3351278 
H     1.4336042   -2.6600732   -5.4458806 
H     1.4986272   -0.9453595   -3.6517263 
H     4.6099675   -3.1758963   -1.6300720 
H     4.5419433   -4.8953630   -3.4264142 
C     2.8253248    5.6897332   -1.0667893 
C     3.4352009    5.1132727    0.0577702 
C     3.5142645    3.7202972    0.1765999 
C     2.9834948    2.8718154   -0.8222080 
C     2.3930332    3.4689728   -1.9600220 
C     2.3117302    4.8603853   -2.0784193 
H     2.7585677    6.7783184   -1.1608017 
H     3.8522113    5.7502787    0.8446177 
H     3.9925391    3.2750352    1.0559360 
H     1.9790979    2.8392159   -2.7538874 
H     1.8430986    5.3017889   -2.9643002 
Fe   -2.6027059    0.4536209    3.2593660 
C    -1.6797953    0.7636952    1.4104499 
C    -1.8332884   -0.6552288    1.7158064 
C    -3.2385352   -0.9115762    1.9003863 
C    -3.9565311    0.3191164    1.7555731 
C    -3.0041858    1.3548272    1.4927922 
C    -2.5230113    1.8613754    4.7595170 
C    -3.7930653    1.1999164    4.7419330 
C    -3.5647120   -0.2044692    4.9325878 
C    -2.1530738   -0.4100784    5.0746490 
C    -1.5086218    0.8651734    4.9636062 
C    -0.7640245   -1.7222665    1.7379855 
H    -3.6747202   -1.8795411    2.1554923 
H    -5.0324178    0.4542484    1.8818486 
H    -3.2391343    2.4110754    1.3753041 
H    -2.3629761    2.9349954    4.6539403 
H    -4.7626255    1.6764522    4.5857390 
H    -4.3305982   -0.9822047    4.9456261 
H    -1.6641236   -1.3715930    5.2400686 
H    -0.4368994    1.0498046    5.0425590 
H     0.0745981    3.1757390   -1.0297555 
C    -2.2091607    4.2492159   -2.0856241 
C    -2.0638538    3.3901840   -0.8135022 
C    -0.8005854    2.5074986   -0.9023199 
C    -0.8982936    1.6113961   -2.1560831 
C    -1.0966497    2.4303024   -3.4434509 
C    -2.3083407    3.3687459   -3.3405417 
H    -1.3360051    4.9258201   -2.1714793 
H    -3.1021641    4.8929044   -1.9932015 
H    -2.9527288    2.7402536   -0.7262653 
H    -2.0435363    4.0406250    0.0755658 
H     0.0132098    0.9856012   -2.2365402 
H    -1.7488762    0.9157546   -2.0290653 
H    -0.1873640    3.0333629   -3.6318863 
H    -1.2056729    1.7433316   -4.3025066 
H    -3.2354952    2.7644369   -3.2871709 
H    -2.3893157    3.9929288   -4.2482031 
H     1.2175803    3.3366069    1.0758082 
C     2.0873061    3.0465099    3.7614785 
C     1.4106362    2.0494062    2.8046522 
C     0.5485524    2.7609822    1.7418397 
C    -0.4616264    3.7258438    2.3924274 
C     0.2333843    4.7124560    3.3494480 
C     1.0624700    3.9845821    4.4174441 
H     2.8197532    3.6538347    3.1952253 
H     2.6592612    2.4939285    4.5286950 
H     0.7600850    1.3672873    3.3809127 
H     2.1695496    1.4178462    2.3063821 
H    -1.0047436    4.2927138    1.6190330 
H    -1.2090750    3.1249833    2.9396576 
H     0.8970581    5.3771390    2.7621764 
H    -0.5260013    5.3620368    3.8216178 
H     0.3873843    3.3969827    5.0703133 
H     1.5736880    4.7135110    5.0710753 
H    -2.0558980   -1.0230574   -0.7877488 
C    -3.8772578   -2.9131372   -1.5357708 
C    -2.5696675   -3.1141575   -0.7466272 
C    -1.5722266   -1.9796975   -1.0734030 
C    -1.2853216   -1.9059631   -2.5892333 
C    -2.5964498   -1.7188843   -3.3743490 
C    -3.6128015   -2.8259566   -3.0481405 
H    -4.3635356   -1.9796757   -1.1892131 
H    -4.5769384   -3.7385704   -1.3125828 
H    -2.1284693   -4.0914611   -1.0150711 
H    -2.7848406   -3.1497399    0.3344449 
H    -0.5895991   -1.0770754   -2.7962150 
H    -0.7819338   -2.8271428   -2.9300935 
H    -3.0355618   -0.7334248   -3.1192798 
H    -2.3814814   -1.6969832   -4.4580757 
H    -3.2180143   -3.7980077   -3.4042203 
H    -4.5578137   -2.6511650   -3.5925845 
H    -0.0460871   -4.2094147    0.7486462 
C     2.5310307   -5.1780902    0.9424703 
C     2.0686980   -3.7261592    0.7213246 
C     0.6642385   -3.6838491    0.0764133 
C     0.6912171   -4.4428240   -1.2698494 
C     1.1620801   -5.8959447   -1.0651898 
C     2.5311484   -5.9714405   -0.3728792 
H     1.8549960   -5.6666399    1.6720322 
H     3.5383831   -5.1794777    1.3967491 
H     2.7740188   -3.2162632    0.0431617 
H     2.0926441   -3.1745758    1.6740667 
H    -0.3074173   -4.4536093   -1.7332981 
H     1.3669813   -3.9262345   -1.9723653 
H     0.4108666   -6.4346392   -0.4537366 
H     1.1967824   -6.4057103   -2.0448426 
H     3.3000200   -5.5520404   -1.0485111 
H     2.8092431   -7.0242835   -0.1873995 
H    -1.2681698   -2.6744907    1.9806466 
C     0.3593093   -1.4815347    2.7667749 
H    -0.0776143   -1.0755678    3.6897478 
H     0.8869998   -2.4161101    3.0122239 
H     1.0998597   -0.7543501    2.3913524 
