110
Energy =
C     2.2082948    1.9313496    0.9965337 
C     2.3642769    2.4944265   -0.3113152 
C     1.4967321    3.4645250   -0.8227262 
H     3.1882749    2.1404843   -0.9425146 
Pd    0.5361888    1.1756139   -0.2331628 
P    -0.9813354    0.4276515   -1.9758336 
P    -0.1718258   -0.4112623    1.3120524 
H     1.6566739    2.5351379    1.7307378 
H     0.7657039    3.9022090   -0.1268660 
C     5.1694263   -0.6562974    2.7691565 
C     5.0883558   -0.5449979    1.3702328 
C     4.1248208    0.2815367    0.7815803 
C     3.2264464    1.0323648    1.5794390 
C     3.3351235    0.9233021    2.9853148 
C     4.2881162    0.0830700    3.5735945 
H     5.9202819   -1.3082146    3.2270683 
H     5.7740751   -1.1147712    0.7344788 
H     4.0582239    0.3237503   -0.3107221 
H     2.6669778    1.5080667    3.6248863 
H     4.3436851    0.0186437    4.6653620 
C     1.9412732    5.6814050   -4.4723151 
C     1.0253300    6.0884173   -3.4897867 
C     0.8900530    5.3487652   -2.3112011 
C     1.6670474    4.1859732   -2.0843632 
C     2.6018311    3.8023900   -3.0780314 
C     2.7317301    4.5387953   -4.2583080 
H     2.0474580    6.2565089   -5.3977427 
H     0.4170574    6.9855236   -3.6431083 
H     0.1726412    5.6700074   -1.5477588 
H     3.2357645    2.9228394   -2.9286478 
H     3.4578245    4.2259508   -5.0156013 
Fe   -3.4767922   -1.8762187    1.4746578 
C    -1.9760974   -0.5214703    1.2040907 
C    -2.7188154   -0.6855224   -0.0338945 
C    -4.0951594   -0.3745464    0.2578433 
C    -4.2021871    0.0124303    1.6335324 
C    -2.9048631   -0.0890760    2.2295780 
C    -3.4148376   -3.8751600    1.0047218 
C    -2.8157596   -3.6448726    2.2915219 
C    -3.7966759   -3.0277872    3.1336960 
C    -5.0046224   -2.8795465    2.3715650 
C    -4.7678947   -3.3996193    1.0543608 
C     0.1280354    0.0128671    3.0717826 
C    -0.1251939    1.3391256    3.4808619 
C     0.1527323    1.7413294    4.7908525 
C     0.6981084    0.8179119    5.6990205 
C     0.9053567   -0.5151961    5.3148238 
C     0.6153013   -0.9195057    4.0062002 
C     0.5931331   -2.0557009    1.0529782 
C     1.9681618   -2.2179453    1.3188484 
C     2.6117491   -3.4172199    0.9962868 
C     1.8897033   -4.4648990    0.4036836 
C     0.5140514   -4.3209853    0.1601870 
C    -0.1282306   -3.1211074    0.4829000 
C    -2.1216448   -1.0007518   -1.3879934 
H    -4.9296349   -0.4357686   -0.4413764 
H    -5.1228279    0.2877045    2.1509184 
H    -2.6537316    0.1179477    3.2704669 
H    -2.9405484   -4.3518731    0.1443212 
H    -1.7921220   -3.8901788    2.5787256 
H    -3.6474752   -2.7126554    4.1678635 
H    -5.9331803   -2.4266815    2.7237642 
H    -5.4892048   -3.4233789    0.2355576 
H    -0.5284585    2.0625429    2.7627122 
H     0.7904264   -1.9584163    3.7130233 
H     2.5396360   -1.4143829    1.7864310 
H    -1.2016916   -3.0053564    0.3194081 
H    -1.3615275   -1.7910475   -1.2530129 
C    -3.1953142   -1.5382822   -2.3520861 
H    -3.6698166   -2.4159008   -1.8785947 
H    -3.9877008   -0.7987892   -2.5439530 
H    -2.7802035   -1.8497895   -3.3188641 
C     1.1653692    1.2768703    7.0629006 
F     2.4954153    1.5603700    7.0256654 
F     0.5258632    2.3942906    7.4698964 
F     0.9861338    0.3237932    8.0030254 
H    -0.0296526    2.7722069    5.1070647 
H     1.3058722   -1.2332300    6.0364853 
H     3.6779042   -3.5367271    1.2075972 
H    -0.0523960   -5.1503124   -0.2742502 
C     2.5914966   -5.7371820   -0.0203902 
F     1.8138476   -6.8243255    0.1885308 
F     2.8852106   -5.7043506   -1.3449679 
F     3.7524512   -5.9196324    0.6463886 
C     0.2352607   -0.4072502   -3.2162748 
C    -2.0958105    1.7372198   -2.8259202 
C     1.0011586    0.7154257   -3.9462948 
H     1.8488769    0.2728456   -4.5008716 
H     0.3729033    1.2521664   -4.6750089 
H     1.4083660    1.4514416   -3.2328359 
C    -3.2986043    1.9860895   -1.8874171 
H    -3.8263109    2.8967987   -2.2248465 
H    -4.0226424    1.1592495   -1.9038945 
H    -2.9787163    2.1455794   -0.8422944 
C     1.2475302   -1.2097644   -2.3624605 
H     1.9980532   -1.6681012   -3.0324086 
H     1.7795159   -0.5616934   -1.6393113 
H     0.7703641   -2.0262325   -1.7952069 
C    -0.3965644   -1.3703109   -4.2415359 
H     0.3968081   -1.7131638   -4.9312421 
H    -0.8099762   -2.2694699   -3.7559377 
H    -1.1827619   -0.8998109   -4.8508021 
C    -1.3054807    3.0554265   -2.9093825 
H    -1.9396892    3.8278780   -3.3816875 
H    -1.0386302    3.4060185   -1.9005014 
H    -0.3815828    2.9767510   -3.5001543 
C    -2.5899714    1.3418766   -4.2331551 
H    -3.2784867    2.1277748   -4.5950076 
H    -1.7616557    1.2769905   -4.9572021 
H    -3.1401798    0.3891017   -4.2441338 
