116
Energy =
C    -3.5918114    0.1387013   -0.2695457 
C    -2.9897463    0.7402024   -1.4216153 
C    -2.3049782   -0.0566543   -2.3567394 
H    -3.0066953    1.8313693   -1.5408165 
Pd   -1.3520511   -0.1274698   -0.2006748 
P     0.8797217    0.4930490   -0.6493235 
P    -0.9382594   -1.3567715    1.8150211 
H    -3.9929927   -0.8701330   -0.4113623 
H    -2.3967494   -1.1474214   -2.2321375 
C    -5.5755218    2.4407735    2.7814941 
C    -4.4515446    2.9695087    2.1250835 
C    -3.8074383    2.2316015    1.1267006 
C    -4.2685843    0.9436096    0.7638788 
C    -5.4076134    0.4299481    1.4260782 
C    -6.0534869    1.1705931    2.4237171 
H    -6.0778224    3.0180416    3.5643414 
H    -4.0734818    3.9604864    2.3976254 
H    -2.9194674    2.6462226    0.6359418 
H    -5.7887335   -0.5592399    1.1494053 
H    -6.9352547    0.7558097    2.9230476 
C    -0.8217651    1.0200056   -6.2407509 
C    -0.6133942   -0.2683076   -5.7236666 
C    -1.0949561   -0.5973264   -4.4520567 
C    -1.7925604    0.3531511   -3.6681622 
C    -2.0233790    1.6367786   -4.2192308 
C    -1.5352413    1.9670440   -5.4864062 
H    -0.4485053    1.2798750   -7.2365126 
H    -0.0828507   -1.0197029   -6.3169098 
H    -0.9336268   -1.6044724   -4.0518844 
H    -2.6033749    2.3777086   -3.6606861 
H    -1.7245313    2.9639779   -5.8972997 
Fe    3.7996821   -0.6766531    1.2600281 
C     2.0319400    0.2459653    0.7442411 
C     1.8324465   -0.7273428    1.8067529 
C     2.6756654   -0.3465244    2.9117200 
C     3.3966178    0.8388219    2.5501842 
C     3.0220624    1.1961546    1.2156422 
C     5.0486954   -2.1412678    1.9294678 
C     4.4187426   -2.5572893    0.7083811 
C     4.7677264   -1.6095194   -0.3080420 
C     5.5985487   -0.6000490    0.2779290 
C     5.7777495   -0.9321801    1.6630034 
C     0.9003141   -1.9114841    1.7522088 
H     2.7886732   -0.8877487    3.8519178 
H     4.1355151    1.3520221    3.1680968 
H     3.4076630    2.0509368    0.6580383 
H     4.9786595   -2.6436842    2.8961780 
H     3.7996484   -3.4455752    0.5685155 
H     4.4674865   -1.6591267   -1.3527493 
H     6.0204516    0.2649450   -0.2368137 
H     6.3497694   -0.3565357    2.3928949 
H     0.9440661   -2.3011799    0.7193602 
C     1.3740570   -3.0314845    2.7004883 
H     2.4571219   -3.1640519    2.5467836 
H     1.2135805   -2.7939996    3.7611893 
H     0.8852147   -3.9916354    2.4851169 
C    -1.9053231   -3.0272884    1.7981167 
C    -1.2271259   -0.3781301    3.4370974 
C    -3.3846015   -2.7859961    1.4233962 
H    -3.9399931   -3.7311905    1.5635682 
H    -3.8703202   -2.0132246    2.0364956 
H    -3.4770369   -2.5026920    0.3648907 
C    -2.7363382   -0.3252851    3.7507779 
H    -2.8956627    0.3871953    4.5803467 
H    -3.3223280    0.0353734    2.8926182 
H    -3.1346983   -1.3007223    4.0733833 
C    -1.2929088   -3.8859429    0.6634861 
H    -1.9460703   -4.7594064    0.4857906 
H    -1.2359864   -3.3104019   -0.2799183 
H    -0.2881551   -4.2702027    0.8981328 
C    -1.8715113   -3.7842653    3.1457313 
H    -2.3443428   -4.7733610    3.0014408 
H    -0.8575061   -3.9557017    3.5307575 
H    -2.4509802   -3.2557925    3.9195649 
C    -0.4674179   -0.9327985    4.6590645 
H    -0.7297891   -0.3152205    5.5379057 
H    -0.7388017   -1.9734337    4.8942237 
H     0.6227665   -0.8651572    4.5277948 
C    -0.7435018    1.0616815    3.1461476 
H    -1.3276797    1.5123688    2.3273754 
H    -0.8917444    1.6788032    4.0515420 
H     0.3251918    1.0967948    2.8809970 
H     2.0303936    2.6076287   -0.9738943 
C     0.4355663    4.6214137    0.1669520 
C     0.3787953    3.0951349    0.3512908 
C     0.9563594    2.3569814   -0.8746035 
C     0.2222391    2.7986570   -2.1529063 
C     0.2781521    4.3241051   -2.3418764 
C    -0.2863976    5.0603592   -1.1169333 
H     1.4950786    4.9421068    0.1212963 
H    -0.0052143    5.1171743    1.0505785 
H    -0.6749373    2.7774535    0.4802741 
H     0.9112005    2.7999010    1.2707668 
H     0.6244471    2.2922536   -3.0467738 
H    -0.8323687    2.4848443   -2.0612279 
H     1.3291132    4.6324370   -2.5071728 
H    -0.2786064    4.6006047   -3.2557002 
H    -1.3675398    4.8320584   -1.0218587 
H    -0.2058073    6.1535855   -1.2516067 
H     0.8903898    0.0776718   -2.9757021 
C     2.1855694   -2.3777729   -3.4438913 
C     1.6646573   -1.7397753   -2.1207867 
C     1.6289684   -0.2007253   -2.2008514 
C     2.9971455    0.4251675   -2.5591001 
C     3.7436269   -0.3834091   -3.6603527 
C     2.8025595   -1.3410759   -4.4042275 
H     1.3648126   -2.9101409   -3.9568750 
H     2.9442320   -3.1446967   -3.2031084 
H     2.3033701   -2.0263585   -1.2665523 
H     0.6493582   -2.1091891   -1.8829444 
H     2.8306151    1.4587983   -2.9088293 
H     3.6155160    0.4935657   -1.6458171 
H     4.2260116    0.3116201   -4.3687705 
H     4.5650062   -0.9730087   -3.2113483 
H     3.3437337   -1.8601800   -5.2146101 
H     2.0004172   -0.7556658   -4.8906515 
