112
Energy =
C     1.3750507    2.1217095    2.4459059 
C     1.3765100    2.9467272    1.2886951 
C     0.1846502    3.2536697    0.5883124 
H     2.3370332    3.2386289    0.8479406 
Pd    0.5147292    1.0035301    0.6651961 
P    -0.5728074    0.3022811   -1.2747815 
P     0.4201192   -1.1488931    1.5609381 
H     0.4452903    2.0816280    3.0324420 
H    -0.7610493    3.1337208    1.1393222 
C     4.8967831    1.0441406    4.6842492 
C     3.6194795    0.9092819    5.2469728 
C     2.4857657    1.2611700    4.5059022 
C     2.5960294    1.7430863    3.1817742 
C     3.8925593    1.8634030    2.6265796 
C     5.0268745    1.5271384    3.3715113 
H     5.7861296    0.7758413    5.2634262 
H     3.5055456    0.5361947    6.2697710 
H     1.4949940    1.1813072    4.9659154 
H     4.0187370    2.2172929    1.5978632 
H     6.0205201    1.6365851    2.9242719 
C    -0.1892035    5.8090663   -2.8499893 
C     1.0651006    5.6470927   -2.2409399 
C     1.2092638    4.8020479   -1.1361381 
C     0.0949920    4.1136364   -0.6023003 
C    -1.1627378    4.2935507   -1.2236811 
C    -1.3027757    5.1263917   -2.3374405 
H    -0.2985791    6.4677570   -3.7175671 
H     1.9363336    6.1844429   -2.6290812 
H     2.1946424    4.7006481   -0.6703547 
H    -2.0362342    3.7618263   -0.8304955 
H    -2.2839192    5.2435224   -2.8084254 
Fe    1.2185760   -3.9157086   -0.4715096 
C     0.0644469   -2.5093408    0.4116568 
C    -0.0380865   -2.4385366   -1.0400227 
C    -0.5311475   -3.7163144   -1.4900029 
C    -0.7112813   -4.5704128   -0.3528352 
C    -0.3369366   -3.8406759    0.8189804 
C     2.3416870   -5.2826410   -1.4942675 
C     2.8185671   -3.9521031   -1.7458264 
C     3.1858520   -3.3693888   -0.4879213 
C     2.9391286   -4.3402548    0.5439606 
C     2.4208758   -5.5222293   -0.0811866 
C    -1.0605969   -1.1223696    2.6540070 
C    -0.9642687   -0.5355166    3.9343030 
C    -2.0958509   -0.4308137    4.7523230 
C    -3.3375334   -0.9060118    4.2993195 
C    -3.4389910   -1.4861455    3.0266619 
C    -2.3098027   -1.5924886    2.2018809 
C     1.7991047   -1.7418358    2.6094541 
C     3.1050912   -1.3399583    2.2714427 
C     4.2028341   -1.8415140    2.9816909 
C     4.0009243   -2.7372209    4.0426980 
C     2.6992285   -3.1290488    4.3937685 
C     1.5976004   -2.6338958    3.6818955 
C     0.3024122   -1.2553416   -1.9169947 
H    -0.6971523   -4.0058023   -2.5285691 
H    -1.0344892   -5.6125392   -0.3821243 
H    -0.3562629   -4.2109935    1.8451260 
H     1.9615159   -5.9802212   -2.2429369 
H     2.8766235   -3.4654520   -2.7214325 
H     3.5765126   -2.3622047   -0.3375997 
H     3.1006004   -4.1958230    1.6133369 
H     2.1086934   -6.4338277    0.4317272 
H     0.0055152   -0.1809837    4.2965447 
H    -2.4060213   -2.0386871    1.2075958 
H     3.2549618   -0.6285805    1.4526025 
H     0.5840709   -2.9393860    3.9623130 
H     1.3600260   -0.9865517   -1.7381701 
C     0.1239642   -1.5255339   -3.4193103 
H     0.7246888   -2.4066727   -3.7038901 
H    -0.9267605   -1.7237099   -3.6876830 
H     0.4668918   -0.6664048   -4.0161688 
H    -2.0072633    0.0158318    5.7482330 
H    -4.4029637   -1.8577206    2.6643765 
H     5.2146527   -1.5226146    2.7146952 
H     2.5402108   -3.8238120    5.2251030 
H    -4.2216425   -0.8282243    4.9406495 
H     4.8583464   -3.1254882    4.6019772 
C    -4.9977802   -0.6077390   -0.2911352 
C    -4.3588959    0.5071467    0.2853593 
C    -3.0141237    0.7431984   -0.0455344 
C    -2.3265728   -0.0997114   -0.9414095 
C    -2.9939962   -1.1985527   -1.5121694 
C    -4.3364180   -1.4710448   -1.1848946 
H    -6.0429660   -0.8141815   -0.0304261 
H    -2.4833401    1.5791718    0.4239539 
H    -2.4727539   -1.8638023   -2.2044481 
C    -5.0688944    1.3871396    1.2883742 
H    -6.1640340    1.3288296    1.1771904 
H    -4.8164047    1.0686893    2.3177688 
H    -4.7644691    2.4427413    1.1863941 
C    -5.0443491   -2.6567867   -1.8025141 
H    -4.3942159   -3.5489644   -1.8075316 
H    -5.9702190   -2.9047288   -1.2584259 
H    -5.3195178   -2.4451163   -2.8526055 
C    -0.4298721    3.0179912   -4.9947894 
C     0.7411697    2.8062492   -4.2405808 
C     0.6519268    2.0125786   -3.0852961 
C    -0.5721428    1.4214446   -2.7157647 
C    -1.7289551    1.6518414   -3.4817664 
C    -1.6697739    2.4611415   -4.6310523 
H    -0.3744240    3.6491966   -5.8901691 
H     1.5425517    1.8556026   -2.4635174 
H    -2.6818458    1.2013775   -3.1832022 
C     2.0578888    3.4103264   -4.6717997 
H     2.7740062    3.4523491   -3.8347989 
H     2.5163939    2.8114854   -5.4810375 
H     1.9194369    4.4340883   -5.0585792 
C    -2.9152691    2.7592252   -5.4357295 
H    -3.7213516    2.0392878   -5.2182565 
H    -3.2966470    3.7704645   -5.1974951 
H    -2.7105204    2.7358044   -6.5197777 
