142
Energy =
C    -0.3348906    3.3016528    1.0790729 
C    -0.6787765    2.6588385    2.2899495 
C     0.2983315    1.9519217    3.0540527 
H    -1.7348911    2.5771869    2.5784714 
Pd    0.1053072    1.0111354    1.0525355 
P     1.0098686   -1.0734256    1.5973100 
P    -0.1745025    0.6146056   -1.2672313 
H     0.7321954    3.4999690    0.9037408 
H     1.3377897    2.3098537    2.9949037 
C    -2.9855484    5.4646226   -1.5235277 
C    -1.6755228    5.1630216   -1.9260961 
C    -0.8141652    4.4810677   -1.0613213 
C    -1.2551725    4.0583091    0.2148677 
C    -2.5706842    4.3894036    0.6164152 
C    -3.4224856    5.0906254   -0.2425589 
H    -3.6593310    6.0031191   -2.1977301 
H    -1.3202735    5.4645060   -2.9166494 
H     0.2064407    4.2528411   -1.3810876 
H    -2.9279476    4.1132869    1.6139480 
H    -4.4337308    5.3477876    0.0881185 
C    -0.6443041   -0.2224522    6.6496700 
C    -1.5061949   -0.2948263    5.5420381 
C    -1.2097855    0.4153697    4.3734364 
C    -0.0398537    1.2043527    4.2848842 
C     0.8178749    1.2687408    5.4030088 
C     0.5123300    0.5670143    6.5771165 
H    -0.8656917   -0.7893422    7.5589958 
H    -2.4102758   -0.9116175    5.5911285 
H    -1.8724081    0.3420058    3.5031737 
H     1.7326420    1.8680468    5.3478312 
H     1.1912448    0.6200795    7.4336100 
Fe   -3.0974351   -3.2340250    0.4231551 
C    -1.5779234   -2.0087449    1.0475111 
C    -1.6863135   -1.9900904   -0.4022050 
C    -3.0298302   -1.5777918   -0.7274091 
H    -3.4230871   -1.4701110   -1.7388226 
C    -3.7365771   -1.3141695    0.4896263 
H    -4.7792366   -1.0016234    0.5700926 
C    -2.8482397   -1.5814942    1.5811775 
H    -3.0959071   -1.5206882    2.6429918 
C    -2.6728730   -5.2486037    0.3663668 
H    -1.6964583   -5.7311678    0.3014037 
C    -3.5039966   -4.8709827   -0.7420249 
H    -3.2616698   -4.9849414   -1.8003104 
C    -4.7115652   -4.3044721   -0.2160444 
H    -5.5378038   -3.8988001   -0.8028585 
C    -4.6262843   -4.3277592    1.2166414 
H    -5.3783440   -3.9467234    1.9101386 
C    -3.3659385   -4.9098291    1.5767799 
H    -3.0089701   -5.0724132    2.5954782 
C    -0.5856666   -2.1974154   -1.3862076 
C     0.1787129   -1.0979125   -1.8772007 
C     1.2203785   -1.3294931   -2.7972027 
H     1.8297026   -0.4908493   -3.1479899 
C     1.5027151   -2.6259892   -3.2498520 
H     2.3241688   -2.7897672   -3.9540149 
C     0.7462651   -3.7086207   -2.7838057 
H     0.9693957   -4.7244310   -3.1234379 
C    -0.2840697   -3.4874862   -1.8607852 
H    -0.8823514   -4.3212789   -1.4860266 
C     0.9876436    1.7200721   -2.1689027 
C     0.8670820    2.0072591   -3.5415990 
H     0.0599774    1.5630796   -4.1305933 
C     1.7570124    2.8835791   -4.1860019 
C     2.7796009    3.4864358   -3.4158475 
C     2.8967078    3.2618718   -2.0251714 
C     2.0006817    2.3638332   -1.4301193 
H     2.0720884    2.1838581   -0.3495828 
C    -1.8506363    0.9307622   -1.9409211 
C    -2.8416031    1.4719535   -1.1049567 
H    -2.5951316    1.7205195   -0.0685978 
C    -4.1598245    1.6330651   -1.5553173 
C    -4.4658433    1.2503825   -2.8813678 
C    -3.4867150    0.7166443   -3.7532663 
C    -2.1848009    0.5461326   -3.2538336 
H    -1.4351656    0.0735300   -3.8985098 
C     2.3118604   -1.6554011    0.4091101 
C     3.1481649   -0.6615710   -0.1323325 
H     2.9702594    0.3916263    0.0968676 
C     4.2063531   -1.0013496   -0.9869741 
C     4.4376347   -2.3365671   -1.3344048 
H     5.2528851   -2.5994762   -2.0138375 
C     3.5929133   -3.3257119   -0.8134442 
C     2.5506961   -2.9974355    0.0623677 
H     1.9265707   -3.8014718    0.4426639 
C     1.9958441   -1.0965820    3.1659183 
C     3.0878215   -0.2140872    3.2491173 
H     3.3500565    0.4324172    2.4060021 
C     3.8497468   -0.1312320    4.4210080 
C     3.5492625   -0.9379207    5.5256003 
H     4.1413686   -0.8651996    6.4414807 
C     2.4561421   -1.8106342    5.4474413 
C     1.6776498   -1.8874068    4.2838909 
H     0.8153463   -2.5560141    4.2879051 
C    -0.3652819   -2.3238288    1.9007790 
H    -0.6424631   -2.0108691    2.9252975 
C     0.0280896   -3.8128251    1.9411383 
H    -0.7553297   -4.3656498    2.4811758 
H     0.0810074   -4.2274361    0.9241386 
H     0.9888559   -3.9849050    2.4552406 
C     4.9216187    0.9320803    4.5108611 
F     5.8152601    0.6801016    5.4851952 
F     5.5917641    1.0652602    3.3429119 
F     4.3555832    2.1450071    4.7782414 
C     2.1180808   -2.6797353    6.6412310 
F     0.8545612   -3.1657672    6.5664830 
F     2.9544677   -3.7371481    6.7334536 
F     2.2203446   -1.9834875    7.7992848 
C     5.0483716    0.0919446   -1.6036167 
F     5.1740402    1.1536227   -0.7698515 
F     4.4828508    0.5580819   -2.7544811 
F     6.2858974   -0.3380770   -1.9194913 
C     3.8101465   -4.7652983   -1.2302138 
F     4.9604762   -5.2622019   -0.7291817 
F     2.7988540   -5.5680148   -0.8194398 
F     3.8844777   -4.8675827   -2.5826286 
C     1.6183413    3.1998112   -5.6565542 
H     1.9465747    4.2316578   -5.8626825 
H     2.2419690    2.5239414   -6.2714944 
H     0.5745083    3.0796320   -5.9901841 
C     3.9502220    3.9933492   -1.2307963 
H     4.9648977    3.6890991   -1.5397104 
H     3.8747999    5.0813608   -1.3979368 
H     3.8503849    3.7859574   -0.1529614 
C    -5.2518917    2.1695278   -0.6621384 
H    -4.8573092    2.4277569    0.3327366 
H    -5.7134171    3.0686168   -1.1049259 
H    -6.0611249    1.4283100   -0.5327575 
C    -3.8354945    0.3463229   -5.1765451 
H    -4.1977687   -0.6965450   -5.2479410 
H    -4.6328820    1.0029175   -5.5615487 
H    -2.9543879    0.4320325   -5.8334300 
O     3.6505095    4.3762715   -3.9972519 
O    -5.7524091    1.4600986   -3.3276485 
C     4.7821011    3.7885588   -4.6625550 
H     5.4556310    4.6193586   -4.9192393 
H     5.3021533    3.0727931   -3.9992182 
H     4.4779792    3.2631065   -5.5872293 
C    -6.6106129    0.3119435   -3.3456658 
H    -6.6877919   -0.1431507   -2.3390240 
H    -7.6014243    0.6703366   -3.6620500 
H    -6.2552670   -0.4553232   -4.0588083 
