98
Energy =
C    -0.7093106   -2.9656575    0.3503549 
C    -1.4110594   -2.2656328    1.3634303 
C    -2.4813682   -1.3907907    1.0519340 
H    -1.0603760   -2.3282323    2.4005536 
Pd   -0.5162774   -0.6940315    0.0908571 
P    -1.0388562    1.6162252    0.0439582 
P     1.5432544   -0.7556690   -1.0816517 
H    -1.2377047   -3.1177288   -0.6015690 
H    -2.9893173   -1.5419776    0.0881298 
C     2.5466739   -5.7068659    1.0139901 
C     2.1865892   -4.7943523    2.0200402 
C     1.1265405   -3.9045327    1.8205267 
C     0.3972000   -3.9043774    0.6086210 
C     0.7532580   -4.8495576   -0.3814481 
C     1.8191633   -5.7363372   -0.1851218 
H     3.3813667   -6.3975919    1.1702272 
H     2.7407785   -4.7739321    2.9641424 
H     0.8765954   -3.1876381    2.6084182 
H     0.1789623   -4.8958837   -1.3128799 
H     2.0766005   -6.4579270   -0.9672604 
C    -4.8714813    0.7086795    3.9574121 
C    -3.5643138    0.3127560    4.2880276 
C    -2.7779516   -0.3738826    3.3572693 
C    -3.2756847   -0.6757258    2.0683316 
C    -4.6001938   -0.2866218    1.7587657 
C    -5.3896790    0.3974796    2.6916802 
H    -5.4844421    1.2471646    4.6872077 
H    -3.1564940    0.5408005    5.2782376 
H    -1.7623770   -0.6733295    3.6352597 
H    -5.0149639   -0.5323870    0.7751585 
H    -6.4130243    0.6852635    2.4300833 
Fe    1.5268095    2.5539046   -1.9355354 
C     2.3902621    0.8327343   -1.3843665 
C     2.5849123    1.8480460   -0.3690103 
H     2.2437675    1.7850251    0.6644985 
C     3.2850286    2.9505998   -0.9578312 
H     3.5518330    3.8802040   -0.4522382 
C     3.5392132    2.6346341   -2.3317608 
H     4.0330314    3.2811469   -3.0593185 
C     3.0002485    1.3336050   -2.6014370 
C    -0.3859846    2.5752794   -1.3587374 
C    -0.2695145    2.0619042   -2.7077481 
H    -0.5663866    1.0657116   -3.0314920 
C     0.3376575    3.0699120   -3.5245253 
H     0.5873020    2.9703946   -4.5822752 
C     0.5948853    4.2149636   -2.7024405 
H     1.0748534    5.1413132   -3.0229501 
C     0.1467385    3.9245332   -1.3719075 
H     3.0323874    0.8275407   -3.5672669 
H     0.2220295    4.6017859   -0.5198451 
C    -0.4880047    2.5794556    1.5773269 
C    -1.7662019    3.2986213    2.0841522 
C    -2.7021889    3.5506211    0.8949139 
C    -2.8223228    2.2255737    0.1157505 
H     0.2377609    3.3229698    1.2008593 
H    -2.2779860    2.6423909    2.8133272 
H    -1.5062110    4.2333729    2.6099617 
H    -3.6993964    3.8934281    1.2252750 
H    -2.2921363    4.3374804    0.2329944 
H    -3.3518217    1.4970656    0.7544009 
C     1.4952826   -1.5554256   -2.8045804 
C     2.7524200   -2.4742949   -2.8620496 
C     3.7717829   -2.0641652   -1.7918413 
C     3.0039243   -1.7968098   -0.4813530 
H     1.5930941   -0.7098473   -3.5081024 
H     2.4265176   -3.5108107   -2.6577960 
H     3.1892965   -2.4663765   -3.8757525 
H     4.5308177   -2.8521385   -1.6370971 
H     4.3142791   -1.1478574   -2.0919738 
H     2.5638714   -2.7423179   -0.1162170 
C     3.8673745   -1.1608604    0.6188530 
H     4.7485902   -1.8146163    0.7627509 
H     4.2644308   -0.1969630    0.2502774 
C     3.1587300   -0.9644887    1.9632337 
H     3.7768758   -0.3694693    2.6567495 
H     2.1924917   -0.4424267    1.8340789 
H     2.9443798   -1.9324699    2.4433744 
C     0.2227260   -2.3445571   -3.1671147 
H     0.4262935   -2.8490775   -4.1312001 
H     0.0937287   -3.1564882   -2.4313974 
C    -1.0716891   -1.5418477   -3.2817078 
H    -1.9257907   -2.1974683   -3.5228924 
H    -1.3016669   -1.0330901   -2.3231431 
H    -1.0077013   -0.7727937   -4.0718025 
C     0.2080605    1.7124671    2.6401328 
H     1.0481802    1.1671356    2.1750845 
H    -0.4986064    0.9368777    2.9839755 
C     0.7245513    2.5203665    3.8374963 
H     1.2537398    1.8663261    4.5518317 
H     1.4305887    3.3060792    3.5117385 
H    -0.0996149    3.0136960    4.3814623 
C    -3.5402976    2.3386689   -1.2364106 
H    -2.9794679    3.0318607   -1.8912412 
H    -4.5202532    2.8186200   -1.0505519 
C    -3.7558734    1.0006168   -1.9512696 
H    -4.3789698    0.3186696   -1.3466082 
H    -4.2584586    1.1436016   -2.9225930 
H    -2.7963109    0.4897507   -2.1418048 
