112
Energy =
C     2.6360245    2.1486261   -1.0105350 
C     1.7825106    2.1118443   -2.1322818 
C     0.4698917    2.6821685   -2.0952443 
H     2.0834771    1.5407167   -3.0207838 
Pd    0.6427242    1.0522432   -0.5861779 
P    -1.6110650    0.6342090   -0.0798160 
P     1.5225653   -0.7114185    0.7095723 
H     2.4074483    2.8931621   -0.2321976 
H     0.3237614    3.5632304   -1.4528805 
C     6.6939678    0.7395491   -0.8739933 
C     6.2549951    1.7542648   -0.0116537 
C     4.9207290    2.1770460   -0.0468707 
C     4.0073115    1.6193215   -0.9699908 
C     4.4674422    0.6038514   -1.8413020 
C     5.7918149    0.1615635   -1.7850487 
H     7.7342576    0.3997087   -0.8408493 
H     6.9496506    2.2096910    0.7013492 
H     4.5780133    2.9543666    0.6445301 
H     3.7832443    0.1460701   -2.5603889 
H     6.1253577   -0.6347129   -2.4583873 
C    -1.9429500    2.5158579   -5.6634821 
C    -1.3067124    1.3549861   -5.1934173 
C    -0.5415192    1.3990414   -4.0224215 
C    -0.3998361    2.6025835   -3.2919643 
C    -1.0594847    3.7561669   -3.7667796 
C    -1.8149914    3.7150131   -4.9467532 
H    -2.5381701    2.4839305   -6.5816629 
H    -1.4099040    0.4126399   -5.7416945 
H    -0.0609902    0.4862067   -3.6487123 
H    -0.9627936    4.6977431   -3.2148786 
H    -2.3092075    4.6236962   -5.3055291 
Fe   -0.3976717   -3.5553369    1.8393555 
C     0.2799734   -1.6359208    1.6818157 
C    -1.1462042   -1.7121101    1.3827714 
C    -1.7966084   -2.2600070    2.5458050 
C    -0.8080472   -2.5300507    3.5478298 
C     0.4715413   -2.1643039    3.0184993 
C    -0.0286842   -5.4422009    2.5206421 
C    -1.3193390   -5.3782424    1.8968711 
C    -1.1332988   -4.9640241    0.5368365 
C     0.2695983   -4.7598957    0.3192130 
C     0.9529974   -5.0613232    1.5469893 
C     2.7864368   -0.2354363    1.9614310 
C     2.3716203    0.3512987    3.1790176 
C     3.3140941    0.7578912    4.1301877 
C     4.6860385    0.5869181    3.8838572 
C     5.1050306    0.0228678    2.6728578 
C     4.1662012   -0.3749296    1.7087082 
C     2.3634699   -1.9339763   -0.3805296 
C     2.1621785   -1.8761476   -1.7727840 
C     2.7414625   -2.8351947   -2.6167043 
C     3.5412472   -3.8514147   -2.0741720 
C     3.7551181   -3.9097169   -0.6868454 
C     3.1645024   -2.9615172    0.1576983 
C    -1.8570418   -1.2176906    0.1474821 
H    -2.8656726   -2.4673806    2.6285256 
H    -0.9906353   -2.9810324    4.5248025 
H     1.4298556   -2.2514486    3.5321831 
H     0.1684701   -5.7080825    3.5608358 
H    -2.2762719   -5.5874356    2.3786012 
H    -1.9286746   -4.8287068   -0.1972217 
H     0.7381829   -4.4290407   -0.6091350 
H     2.0283802   -5.0110380    1.7157319 
H     1.3079833    0.4708284    3.3957551 
H     4.5199867   -0.7876454    0.7595940 
H     1.5467383   -1.0701942   -2.1915479 
H     3.3254585   -3.0175863    1.2387605 
H     2.9738479    1.2023021    5.0713785 
H     6.1714212   -0.1033456    2.4613044 
H     2.5733976   -2.7839311   -3.6975012 
H     4.3791700   -4.7025205   -0.2614816 
H     5.4225337    0.8955755    4.6329030 
H     3.9990014   -4.5987920   -2.7303924 
H    -2.9379724   -1.3673722    0.3074688 
C    -1.4281911   -1.9204724   -1.1572963 
H    -1.7512717   -1.3667934   -2.0561152 
H    -0.3338598   -2.0257898   -1.1977011 
H    -1.8623460   -2.9303409   -1.2006783 
H    -2.3797553    1.0255859   -2.3155268 
H    -2.2223978    2.5461348    1.1803397 
C    -4.2550803    3.0620612   -2.3338558 
C    -3.3051335    2.6185182   -1.2065212 
C    -2.9159147    1.1284939   -1.3529495 
C    -4.1784219    0.2356722   -1.4215243 
C    -5.1134655    0.6999895   -2.5552678 
C    -5.5069716    2.1754702   -2.3952551 
H    -3.7200122    3.0058147   -3.2983521 
H    -4.5314269    4.1212012   -2.1827578 
H    -3.8162340    2.7738973   -0.2376236 
H    -2.3980278    3.2508326   -1.2005270 
H    -3.9064318   -0.8197810   -1.5902179 
H    -4.7248189    0.2765610   -0.4604698 
H    -4.5964481    0.5619487   -3.5252893 
H    -6.0101993    0.0548494   -2.5765106 
H    -6.0983497    2.2992791   -1.4661857 
H    -6.1588133    2.4913576   -3.2290920 
C    -1.3706428    2.3241556    3.7979548 
C    -0.9843200    1.4814685    2.5703562 
C    -2.1047159    1.4952134    1.5099362 
C    -3.4467824    1.0225872    2.1109872 
C    -3.8192875    1.8609336    3.3491840 
C    -2.7001997    1.8452212    4.4026102 
H    -1.4615770    3.3870471    3.4989162 
H    -0.5612899    2.2752690    4.5492632 
H    -0.8005380    0.4403563    2.8910779 
H    -0.0454200    1.8579995    2.1213333 
H    -4.2535034    1.0841414    1.3608697 
H    -3.3569384   -0.0392192    2.4043044 
H    -4.0117426    2.9051917    3.0331350 
H    -4.7638140    1.4821030    3.7792678 
H    -2.5740588    0.8131720    4.7861134 
H    -2.9789769    2.4738134    5.2669152 
