124
Energy =
C     2.8368284   -0.8206717   -2.0497169 
C     2.7412569    0.5984657   -2.0988974 
C     3.0686274    1.3884291   -0.9730334 
H     2.2965256    1.0799696   -2.9783135 
Pd    1.3306742   -0.0420272   -0.5297701 
P    -0.1097697    1.4863518    0.5677591 
P     0.0589195   -1.9552785   -0.0219301 
H     3.5650147   -1.2363761   -1.3396657 
H     3.6938420    0.9140615   -0.2009889 
C     1.7702982   -3.5117892   -5.2455498 
C     1.4235955   -2.1535324   -5.3343671 
C     1.7691329   -1.2665149   -4.3096972 
C     2.4760222   -1.7130591   -3.1682756 
C     2.8449258   -3.0764662   -3.1106232 
C     2.4899255   -3.9676129   -4.1302383 
H     1.4940670   -4.2051516   -6.0463305 
H     0.8756785   -1.7840853   -6.2074694 
H     1.4683566   -0.2171749   -4.3961282 
H     3.4251402   -3.4374096   -2.2555061 
H     2.7860464   -5.0195911   -4.0592662 
C     2.9982466    5.6811855   -0.6580794 
C     3.6640128    4.8972988    0.2969260 
C     3.6860570    3.5039332    0.1689756 
C     3.0430524    2.8585355   -0.9133493 
C     2.4083210    3.6662948   -1.8875953 
C     2.3803872    5.0589740   -1.7555867 
H     2.9757316    6.7711195   -0.5590797 
H     4.1692516    5.3737323    1.1433574 
H     4.2050162    2.8975918    0.9192824 
H     1.9355410    3.2068235   -2.7615628 
H     1.8803929    5.6648770   -2.5182675 
Fe   -2.6576218    0.4219733    3.0782446 
C    -1.6050813    0.7459372    1.3165656 
C    -1.7802614   -0.6748807    1.5960909 
C    -3.1954972   -0.9337868    1.6677789 
C    -3.9003523    0.2987385    1.4755097 
C    -2.9308626    1.3354853    1.2881886 
C    -2.7248477    1.8201765    4.5834275 
C    -3.9528966    1.0861888    4.5102512 
C    -3.6517355   -0.3036690    4.7049447 
C    -2.2370344   -0.4285969    4.9020976 
C    -1.6621369    0.8826556    4.8220170 
C    -0.7113320   -1.7360104    1.6815707 
H    -3.6488293   -1.9043618    1.8800152 
H    -4.9829510    0.4327399    1.5160364 
H    -3.1515856    2.3913543    1.1292484 
H    -2.6236357    2.9015946    4.4824265 
H    -4.9413837    1.5071715    4.3177267 
H    -4.3713633   -1.1242644    4.6850589 
H    -1.7014919   -1.3618567    5.0837078 
H    -0.6048708    1.1280383    4.9318325 
H     0.2582848    2.6161619   -1.4511335 
C    -1.6068255    4.4959910   -2.1283269 
C    -1.3363054    3.8469807   -0.7554831 
C    -0.7085118    2.4501561   -0.9380910 
C    -1.5641139    1.5473355   -1.8524735 
C    -1.8355386    2.2203290   -3.2086667 
C    -2.4771181    3.6043412   -3.0271318 
H    -0.6376096    4.6852192   -2.6302336 
H    -2.0818766    5.4822221   -1.9797655 
H    -2.2868235    3.7742752   -0.1956606 
H    -0.6590394    4.4969340   -0.1760044 
H    -1.0412209    0.5870697   -2.0066397 
H    -2.5238915    1.3154831   -1.3537810 
H    -0.8778014    2.3279920   -3.7572621 
H    -2.4797137    1.5671667   -3.8247683 
H    -3.4776590    3.4842162   -2.5665831 
H    -2.6367431    4.0876941   -4.0074163 
H     1.2088356    3.4076992    1.0546301 
C     2.3053113    3.0858940    3.6292528 
C     1.6330959    2.0619246    2.6984599 
C     0.6398169    2.7402280    1.7306052 
C    -0.4035800    3.5619132    2.5135430 
C     0.2728439    4.5821110    3.4474692 
C     1.2636360    3.9058312    4.4069021 
H     2.9262605    3.7720915    3.0224192 
H     2.9895137    2.5651513    4.3234221 
H     1.0815590    1.3229913    3.3095407 
H     2.3905951    1.4967305    2.1244187 
H    -1.0927288    4.0829541    1.8308024 
H    -1.0174529    2.8559071    3.0954277 
H     0.8096896    5.3332393    2.8351080 
H    -0.5011038    5.1316642    4.0137304 
H     0.7086873    3.2378930    5.0952610 
H     1.7640717    4.6606794    5.0391210 
H    -1.9798056   -1.2444907   -0.9571810 
C    -3.5509714   -3.2930930   -1.8699130 
C    -2.3289888   -3.3723116   -0.9344245 
C    -1.3996768   -2.1645420   -1.1719853 
C    -0.9485314   -2.1053421   -2.6441877 
C    -2.1571019   -2.0602928   -3.5936483 
C    -3.1193762   -3.2328087   -3.3448066 
H    -4.1407152   -2.3898446   -1.6168679 
H    -4.2093842   -4.1628233   -1.6945420 
H    -1.7779419   -4.3068812   -1.1491266 
H    -2.6578993   -3.4204604    0.1185797 
H    -0.3087705   -1.2206044   -2.8004773 
H    -0.3191119   -2.9841990   -2.8830936 
H    -2.6969286   -1.1047581   -3.4398439 
H    -1.8023456   -2.0617761   -4.6399854 
H    -2.6139728   -4.1816103   -3.6131793 
H    -4.0043441   -3.1500863   -4.0006608 
H     1.0088260   -3.8975367   -1.0224192 
C     1.0535369   -6.0375603    0.7318414 
C     0.2930234   -4.7039620    0.8675568 
C     0.9862036   -3.5910079    0.0434792 
C     2.4492567   -3.4367096    0.5213087 
C     3.2169200   -4.7660236    0.3980907 
C     2.5186586   -5.8956656    1.1713651 
H     1.0124839   -6.3709372   -0.3238634 
H     0.5424882   -6.8139380    1.3289663 
H     0.2832231   -4.4098605    1.9348336 
H    -0.7564162   -4.8383238    0.5638896 
H     2.9549261   -2.6422599   -0.0498652 
H     2.4593313   -3.1114301    1.5780081 
H     3.2851148   -5.0486194   -0.6710013 
H     4.2531301   -4.6308103    0.7568163 
H     2.5533021   -5.6711362    2.2558446 
H     3.0579450   -6.8488414    1.0290144 
H    -1.2177232   -2.6838973    1.9324230 
C     0.4011237   -1.4693123    2.7125813 
H    -0.0430167   -1.1111122    3.6524483 
H     0.9771679   -2.3851242    2.9221727 
H     1.1044698   -0.7000072    2.3514083 
