132
Energy =
C     2.4875621   -2.0535860    0.2096814 
C     2.1620843   -2.2843073    1.5720013 
C     0.9687535   -2.9523743    1.9456403 
H     2.7887017   -1.8267767    2.3476808 
Pd    0.5123913   -1.0614979    0.7504047 
P    -1.5910736   -0.3970489    1.5467900 
P     0.4707732    0.3452845   -1.1064892 
H     2.0555750   -2.7365021   -0.5372615 
H     0.5057480   -3.5927049    1.1797747 
C     6.0107340    0.0247091   -1.1370058 
C     5.4286287   -0.9821607   -1.9208449 
C     4.2813864   -1.6494022   -1.4729632 
C     3.6946296   -1.3278196   -0.2281908 
C     4.3066414   -0.3251780    0.5589212 
C     5.4469909    0.3455167    0.1087410 
H     6.9019967    0.5535639   -1.4897604 
H     5.8733572   -1.2545141   -2.8838524 
H     3.8332950   -2.4369458   -2.0873337 
H     3.8693424   -0.0491961    1.5243653 
H     5.8931309    1.1317462    0.7263803 
C    -0.2599751   -3.9713163    5.9473944 
C    -0.9391351   -4.4852665    4.8321929 
C    -0.5238300   -4.1452945    3.5395657 
C     0.5688270   -3.2702342    3.3271743 
C     1.2427194   -2.7623003    4.4623716 
C     0.8381530   -3.1171864    5.7538375 
H    -0.5764633   -4.2409101    6.9599937 
H    -1.7870656   -5.1642831    4.9697586 
H    -1.0457029   -4.5668841    2.6742636 
H     2.0946186   -2.0860066    4.3400959 
H     1.3829785   -2.7231055    6.6179533 
Fe   -1.7703520    3.0617254   -1.6402687 
C    -1.1444159    1.1393337   -1.4068223 
C    -2.0993911    1.5143746   -0.3744499 
C    -3.3195195    1.8948904   -1.0427590 
C    -3.1236650    1.7781338   -2.4588853 
C    -1.7854812    1.3239280   -2.6906478 
C    -1.4883791    4.7519798   -0.5149301 
C    -0.2736474    4.3875375   -1.1827327 
C    -0.5307458    4.3743582   -2.5961857 
C    -1.9060493    4.7327139   -2.7993732 
C    -2.4995945    4.9629966   -1.5123632 
C     0.6773039   -0.7273082   -2.5750121 
C     1.8507180   -0.7718138   -3.3484213 
C     1.9937305   -1.7074268   -4.3889744 
C     0.9358782   -2.6100492   -4.6362955 
C    -0.2478313   -2.6048511   -3.8576525 
C    -0.3552044   -1.6553393   -2.8313547 
C     1.7347728    1.6567544   -1.1214199 
C     2.2587720    2.0665417    0.1165957 
C     3.1736952    3.1285041    0.2053695 
C     3.5521919    3.7777628   -0.9919465 
C     3.0508234    3.3770546   -2.2549993 
C     2.1337633    2.3162180   -2.2992491 
C    -1.8679273    1.4343947    1.1154475 
H    -4.2282676    2.2585886   -0.5611836 
H    -3.8559272    2.0321748   -3.2273891 
H    -1.3231939    1.1298077   -3.6596092 
H    -1.6194550    4.8476336    0.5644752 
H     0.6755239    4.1483659   -0.7017818 
H     0.1895978    4.1304207   -3.3775368 
H    -2.4187926    4.7947947   -3.7610193 
H    -3.5414429    5.2298575   -1.3252936 
H     2.6784145   -0.0902457   -3.1362682 
H    -1.2615585   -1.6453748   -2.2137119 
H     1.9542976    1.5363631    1.0278051 
H     1.7181677    2.0143279   -3.2664411 
H    -0.8799722    1.8809070    1.3329232 
H    -1.2841469   -1.6182334    3.5477052 
H    -2.6676068   -1.1327057   -0.3991322 
C    -5.3228391   -1.7175698   -0.0939665 
C    -4.4045239   -0.9139338    0.8468425 
C    -2.9346795   -1.3483236    0.6561324 
C    -2.7672854   -2.8669814    0.8785589 
C    -3.7056509   -3.6681497   -0.0415664 
C    -5.1698737   -3.2312867    0.1238817 
H    -5.0696114   -1.4665544   -1.1431435 
H    -6.3720138   -1.4082461    0.0615110 
H    -4.7171186   -1.0793618    1.8924281 
H    -4.5158259    0.1615051    0.6397911 
H    -1.7168471   -3.1551253    0.6943387 
H    -2.9875510   -3.1094560    1.9361690 
H    -3.3924682   -3.5114316   -1.0932717 
H    -3.5956741   -4.7484801    0.1628711 
H    -5.5135213   -3.4889061    1.1452363 
H    -5.8172995   -3.7885251   -0.5764177 
C    -2.9578264   -0.7328411    5.5961814 
C    -3.0797753   -0.5619911    4.0697724 
C    -1.6871087   -0.5973217    3.4027102 
C    -0.6765804    0.3842051    4.0512687 
C    -0.6293405    0.2396092    5.5826467 
C    -2.0303461    0.3288092    6.2063218 
H    -2.5536824   -1.7405979    5.8157455 
H    -3.9631575   -0.6830162    6.0514462 
H    -3.5969707    0.3883210    3.8510765 
H    -3.7069124   -1.3705977    3.6576254 
H     0.3269325    0.2090097    3.6162318 
H    -0.9512421    1.4266847    3.8035384 
H    -0.1871617   -0.7399345    5.8361106 
H     0.0382791    1.0137461    6.0025158 
H    -2.4568133    1.3368009    6.0297110 
H    -1.9672173    0.2006022    7.3016390 
C    -2.9341140    2.1958924    1.9219964 
H    -3.0126234    3.2218671    1.5233890 
H    -3.9286530    1.7294734    1.8518538 
H    -2.6642404    2.2644793    2.9864783 
C     3.2582622   -1.7834090   -5.2115477 
H     3.6386155   -2.8189190   -5.2443925 
H     3.0772968   -1.4792053   -6.2585779 
H     4.0382672   -1.1245501   -4.7977607 
C    -1.3422150   -3.6138863   -4.1159142 
H    -1.9526765   -3.7755275   -3.2120670 
H    -2.0235525   -3.2724121   -4.9176321 
H    -0.9123653   -4.5767507   -4.4375609 
O     1.1115332   -3.5731309   -5.6052301 
C     0.5571879   -3.2818864   -6.8959818 
H     0.8168991   -4.1328550   -7.5430025 
H    -0.5433366   -3.1776369   -6.8517038 
H     0.9888625   -2.3537684   -7.3163891 
C     3.7737503    3.5469933    1.5264555 
H     3.7364431    2.7208330    2.2558343 
H     4.8212401    3.8624428    1.3904471 
H     3.2287425    4.4027934    1.9670380 
C     3.4972518    4.0900061   -3.5090521 
H     4.5687645    4.3420575   -3.4516062 
H     3.3172609    3.4710742   -4.4029732 
H     2.9465955    5.0403141   -3.6433814 
O     4.4915393    4.7830431   -0.9418031 
C     3.9750429    6.1073848   -0.7427145 
H     4.8437346    6.7822882   -0.7418089 
H     3.2843927    6.3949352   -1.5577853 
H     3.4429439    6.1902845    0.2239647 
