98
Energy =
C    -1.2630664   -1.6738754   -2.2354218 
C    -0.7665239   -0.5284873   -2.9083880 
C     0.6224952   -0.2757173   -3.0040218 
H    -1.4773119    0.2210276   -3.2766270 
Pd   -0.0707054   -0.3346788   -0.8137119 
P     1.6060063    1.1083240    0.0150041 
P    -1.0486666   -1.1179288    1.1932336 
H    -0.5801566   -2.5316011   -2.1391181 
H     1.2912064   -1.1391143   -2.8749267 
C    -5.4340297   -2.7393911   -2.0852806 
C    -5.0649893   -1.3885389   -2.2019624 
C    -3.7141617   -1.0269325   -2.2401006 
C    -2.6986024   -2.0085730   -2.1639762 
C    -3.0869361   -3.3646046   -2.0606996 
C    -4.4393706   -3.7264257   -2.0193725 
H    -6.4916728   -3.0195817   -2.0522970 
H    -5.8357798   -0.6129673   -2.2592696 
H    -3.4444377    0.0313006   -2.3180109 
H    -2.3161295   -4.1432425   -2.0287982 
H    -4.7169971   -4.7825351   -1.9418536 
C     2.4617325    3.0616607   -5.0058590 
C     1.0904395    3.1035129   -4.7006990 
C     0.4759798    2.0227374   -4.0608021 
C     1.2189643    0.8715105   -3.7076067 
C     2.5911815    0.8339029   -4.0475348 
C     3.2078800    1.9179386   -4.6844336 
H     2.9410707    3.9113314   -5.5023600 
H     0.4983750    3.9870385   -4.9605396 
H    -0.5893085    2.0824591   -3.8180940 
H     3.1780801   -0.0607882   -3.8130911 
H     4.2722416    1.8671135   -4.9359055 
Fe    1.0412211    0.4586996    3.2594315 
C     0.0555222   -1.1739612    2.6422201 
C    -0.2746542   -0.8777632    4.0241583 
H    -1.2656094   -0.6545691    4.4218716 
C     0.9365427   -0.9070966    4.7895356 
H     1.0192224   -0.6964689    5.8572140 
C     2.0197275   -1.2234426    3.9062961 
H     3.0731108   -1.2951865    4.1821652 
C     1.4850955   -1.3930402    2.5883487 
C     1.4337065    1.6906502    1.7330258 
C     2.4495984    1.8231511    2.7605981 
H     3.5178028    1.6320782    2.6485992 
C     1.8050701    2.2232275    3.9770883 
H     2.2995701    2.3737148    4.9383077 
C     0.4017817    2.3572306    3.7199320 
H    -0.3619910    2.6299983    4.4502234 
C     0.1698220    2.0421972    2.3425236 
H     2.0554510   -1.6249871    1.6881346 
H    -0.7936704    2.0549422    1.8327292 
C     2.0421106    2.7132625   -0.8714909 
C     3.5369195    2.8849609   -0.5284148 
C     4.2220323    1.5203862   -0.7051118 
C     3.3629961    0.4133569   -0.0318686 
H     1.9442700    2.4974404   -1.9497416 
H     3.9946995    3.6535613   -1.1768644 
H     3.6374804    3.2409858    0.5147412 
H     4.2989313    1.2976927   -1.7850762 
H     5.2480910    1.5233395   -0.2989586 
H     3.6447746    0.3077437    1.0309810 
C    -1.9347228   -2.8000281    1.1420833 
C    -3.4177180   -2.4384930    1.4117263 
C    -3.4747055   -1.2584220    2.3943171 
C    -2.5318239   -0.1567438    1.8562007 
H    -1.8359871   -3.1736600    0.1112960 
H    -3.8979908   -2.1509492    0.4591306 
H    -3.9667027   -3.3178011    1.7921388 
H    -4.5038574   -0.8742680    2.5102322 
H    -3.1418538   -1.5875094    3.3955286 
H    -2.1409357    0.4717421    2.6744392 
C    -3.1772750    0.7605938    0.7961151 
H    -2.3783950    1.2665747    0.2196689 
H    -3.7273353    0.1416723    0.0661946 
C    -4.1131097    1.8106710    1.4082502 
H    -4.5668424    2.4394510    0.6230486 
H    -4.9356585    1.3430049    1.9773561 
H    -3.5641172    2.4761120    2.0996994 
C    -1.3435162   -3.8657059    2.0876557 
H    -1.2067395   -3.4547583    3.1048364 
H    -2.0971521   -4.6709225    2.1811076 
C    -0.0309016   -4.4691393    1.5734926 
H    -0.1835182   -4.9632136    0.5965186 
H     0.7478269   -3.6983364    1.4408838 
H     0.3635975   -5.2224271    2.2761030 
C     1.1547561    3.9113657   -0.5019330 
H     1.5737154    4.8039346   -1.0043953 
H     1.2398077    4.1035526    0.5842455 
C    -0.3186775    3.7516929   -0.8962847 
H    -0.7531896    2.8297972   -0.4658776 
H    -0.9204691    4.6059136   -0.5427285 
H    -0.4298058    3.6855347   -1.9912103 
C     3.4898180   -0.9722804   -0.6931690 
H     3.2530042   -0.8794514   -1.7676773 
H     2.7270880   -1.6569070   -0.2748412 
C     4.8857271   -1.5865805   -0.5222654 
H     4.9382564   -2.5835666   -0.9920399 
H     5.6643914   -0.9557512   -0.9854091 
H     5.1385797   -1.7016769    0.5474879 
