122
Energy =
C    -2.3502078   -1.8764698    1.3280559 
C    -1.8608441   -1.3879784    2.5573617 
C    -1.9357784   -0.0055405    2.8968015 
H    -1.2997961   -2.0633784    3.2144884 
Pd   -0.7314214   -0.2405428    1.0373792 
P     0.5551540    1.7011187    1.1972617 
P     0.1361162   -0.8570336   -1.0758249 
H    -3.0493397   -1.2330594    0.7767076 
H    -2.7359234    0.5866483    2.4281390 
C    -2.3800780   -5.9930485    0.0770732 
C    -2.7333282   -4.9706507   -0.8184739 
C    -2.7212654   -3.6382939   -0.3950954 
C    -2.3354623   -3.2907733    0.9210773 
C    -1.9822486   -4.3340775    1.8081334 
C    -2.0132191   -5.6690717    1.3921799 
H    -2.3909581   -7.0378716   -0.2492613 
H    -3.0065415   -5.2144662   -1.8492763 
H    -2.9999377   -2.8443361   -1.0961757 
H    -1.6940382   -4.1079722    2.8388142 
H    -1.7382354   -6.4607310    2.0953014 
C    -0.5952354    1.5104139    6.6922124 
C     0.0101415    0.3645835    6.1505563 
C    -0.3925142   -0.1196042    4.9024248 
C    -1.4166052    0.5266129    4.1700548 
C    -1.9941408    1.6944888    4.7151400 
C    -1.5925094    2.1770282    5.9660438 
H    -0.2827918    1.8863561    7.6717406 
H     0.7994050   -0.1534040    6.7052299 
H     0.0938623   -1.0127036    4.4949675 
H    -2.7783371    2.2157412    4.1559689 
H    -2.0587799    3.0791640    6.3740735 
Fe   -3.5164195    1.9318970   -2.2437747 
C    -2.0859566    0.6224456   -1.6459287 
C    -1.7919086    1.9432292   -1.1098240 
C    -2.9389990    2.3559231   -0.3342259 
H    -3.0402456    3.3222779    0.1627621 
C    -3.9178692    1.3083919   -0.3576780 
H    -4.9029063    1.3368769    0.1120350 
C    -3.3950455    0.2431938   -1.1642665 
H    -3.9112244   -0.6867435   -1.4132071 
C    -4.1996197    1.4841904   -4.1187470 
H    -4.0684016    0.5361287   -4.6437337 
C    -3.3165169    2.6142919   -4.1745742 
H    -2.4023555    2.6781064   -4.7676520 
C    -3.8587498    3.6438088   -3.3327987 
H    -3.4229985    4.6277805   -3.1504414 
C    -5.0767188    3.1509338   -2.7606044 
H    -5.7177432    3.6865280   -2.0579796 
C    -5.2892821    1.8179158   -3.2473331 
H    -6.1196048    1.1619557   -2.9786927 
C    -0.5663921    2.7933903   -1.2335509 
C     0.4389164    2.8699203   -0.2258145 
C     1.3925717    3.9118050   -0.2768957 
H     2.0901797    4.0402443    0.5560692 
C     1.4511649    4.7969253   -1.3572361 
H     2.2146777    5.5797682   -1.3818438 
C     0.5319761    4.6593458   -2.4040940 
H     0.5752777    5.3249768   -3.2716175 
C    -0.4714329    3.6879330   -2.3212818 
H    -1.2356331    3.6189548   -3.0955959 
C     1.8386576   -0.3561284   -1.6211326 
C     2.9164178   -1.2161033   -1.3215531 
H     2.7579904   -2.1531871   -0.7846244 
C     4.2210584   -0.8827536   -1.6973721 
C     4.4829105    0.3030349   -2.3967917 
H     5.5013044    0.5564083   -2.7031235 
C     3.4203577    1.1684224   -2.6768277 
C     2.1102691    0.8573415   -2.2802712 
H     1.3180654    1.5743546   -2.4942446 
C     0.2946096   -2.6793340   -1.2708619 
C     0.1095460   -3.3448492   -2.4932947 
H    -0.1729170   -2.8017025   -3.3997067 
C     0.2888362   -4.7343977   -2.5647451 
C     0.6982969   -5.4619847   -1.4396020 
H     0.8472431   -6.5427023   -1.5065405 
C     0.9082186   -4.7900632   -0.2267902 
C     0.6788823   -3.4131922   -0.1337186 
H     0.8035691   -2.9037575    0.8276968 
C    -1.1473564   -0.3127535   -2.3744155 
H    -1.7011970   -1.2561857   -2.5273432 
C    -0.6430183    0.1727036   -3.7437234 
H    -1.4870584    0.1513600   -4.4520031 
H    -0.2765760    1.2090536   -3.7020584 
H     0.1646914   -0.4653496   -4.1400422 
C    -0.0428688   -5.4560963   -3.8531025 
F     0.6283336   -6.6187503   -3.9702488 
F    -1.3715302   -5.7477323   -3.9074534 
F     0.2376967   -4.6940152   -4.9353698 
C     1.4396837   -5.5441749    0.9728813 
F     1.1273018   -4.9193275    2.1380793 
F     0.9503347   -6.8022265    1.0348102 
F     2.7891764   -5.6353144    0.9223915 
C     5.3660470   -1.8174423   -1.3674868 
F     6.4558331   -1.1227643   -0.9535207 
F     5.0360243   -2.6854516   -0.3813950 
F     5.7396558   -2.5442877   -2.4429165 
C     3.7094048    2.4941894   -3.3436782 
F     2.6351200    2.9682103   -4.0182249 
F     4.0476883    3.4368226   -2.4167897 
F     4.7392252    2.4085270   -4.2095232 
C     4.8122256   -0.1507598    1.7142173 
C     4.6870473    1.0050124    0.9308094 
C     3.4340183    1.6042715    0.7328847 
C     2.2829342    1.0461797    1.3204996 
C     2.4168067   -0.1279267    2.0974941 
C     3.6706684   -0.7199795    2.2962639 
H     5.7917018   -0.6194209    1.8470276 
H     5.5697770    1.4382814    0.4502434 
H     3.3681798    2.4822511    0.0874645 
H     1.5217292   -0.5797410    2.5427746 
H     3.7526267   -1.6319642    2.8964799 
C     0.2195195    4.7504684    4.6942968 
C    -0.6370553    4.8364733    3.5859860 
C    -0.5423761    3.8971175    2.5523920 
C     0.4215501    2.8674254    2.6131789 
C     1.2648232    2.7724143    3.7368852 
C     1.1606515    3.7141261    4.7700540 
H     0.1506741    5.4889569    5.4996085 
H    -1.3765912    5.6414446    3.5221378 
H    -1.2004338    3.9795812    1.6810824 
H     2.0138206    1.9779560    3.8010286 
H     1.8238924    3.6358886    5.6372737 
