94
Energy =
C    -1.8452967    2.4913798    0.6964834 
C    -0.8251208    2.5246701    1.6791621 
C     0.5226386    2.8078488    1.3168360 
H    -1.0537848    2.1893659    2.6985156 
Pd   -0.2001828    0.9992100    0.2216535 
P     1.8568042    0.0040360   -0.2516420 
P    -1.5138635   -0.5428034   -0.9640702 
H    -1.6791215    3.0749695   -0.2218346 
H     0.6750437    3.4112612    0.4086755 
C    -5.9754695    1.5416155    1.4272400 
C    -4.9758964    0.9522826    2.2206229 
C    -3.6290528    1.2471619    1.9938291 
C    -3.2516917    2.1391369    0.9637099 
C    -4.2657446    2.7236821    0.1746271 
C    -5.6148787    2.4307243    0.4052650 
H    -7.0296122    1.3066134    1.6068903 
H    -5.2533030    0.2545909    3.0180986 
H    -2.8581259    0.7565556    2.5954113 
H    -3.9889759    3.4218564   -0.6219235 
H    -6.3855591    2.8950254   -0.2183052 
C     3.8327581    2.9782429    4.0502479 
C     2.6928517    2.2293231    4.3898939 
C     1.6200720    2.1370257    3.4995149 
C     1.6576074    2.8072039    2.2541985 
C     2.8245074    3.5261814    1.9116926 
C     3.9013891    3.6124030    2.8017274 
H     4.6676823    3.0577395    4.7541034 
H     2.6427678    1.7152942    5.3554823 
H     0.7465338    1.5353323    3.7721517 
H     2.8763003    4.0356465    0.9436134 
H     4.7926115    4.1827991    2.5222763 
Fe    0.9091330   -1.1159857   -3.2728236 
C     2.0913594   -0.0530137   -2.0504377 
C     1.4059187    0.8186475   -2.9848812 
H     0.7095469    1.6177128   -2.7175983 
C     1.7803584    0.4187850   -4.3090322 
H     1.4116197    0.8593586   -5.2369203 
C     2.6887055   -0.6876778   -4.2051150 
H     3.1256489   -1.2354330   -5.0421987 
C     2.8884269   -0.9842624   -2.8185573 
C    -0.8390133   -1.5262093   -2.3517351 
C     0.0562369   -2.6621070   -2.2714142 
H     0.4098426   -3.1342583   -1.3544101 
C     0.3707752   -3.0630952   -3.6109486 
H     1.0405641   -3.8789775   -3.8885046 
C    -0.3128524   -2.1890143   -4.5195210 
H    -0.2526451   -2.2208707   -5.6088191 
C    -1.0604408   -1.2381876   -3.7517093 
H     3.5035747   -1.7811352   -2.4004850 
H    -1.6771699   -0.4293061   -4.1453949 
C     1.8467690   -1.6950878    0.3462067 
C     0.9890231   -2.3455707    1.2082627 
C     1.4508904   -3.6965155    1.2972382 
C     2.5672459   -3.7903436    0.4925304 
H     0.1278524   -1.9003722    1.7053615 
H     1.0157567   -4.5044372    1.8852736 
O     2.8188959   -2.5726882   -0.0839286 
C     3.5034150   -4.8975799    0.1511231 
H     3.5101525   -5.0897053   -0.9370042 
H     4.5364459   -4.6474890    0.4523872 
H     3.1992000   -5.8195169    0.6691015 
C     3.4705745    0.6081192    0.3017533 
C     4.4609169    1.3447516   -0.3174306 
C     5.5489134    1.4076761    0.6080206 
C     5.1609128    0.7087649    1.7315879 
H     4.4152419    1.7643480   -1.3226133 
H     6.5112500    1.8979366    0.4603221 
O     3.8888912    0.2310920    1.5551545 
C     5.8424110    0.3353512    3.0018433 
H     5.1846844    0.5235163    3.8664370 
H     6.1080554   -0.7381520    3.0058326 
H     6.7658107    0.9223037    3.1205705 
C    -2.2170030   -1.8261227    0.0916861 
C    -2.6718305   -3.1065960   -0.1442121 
C    -3.0564663   -3.6410586    1.1256812 
C    -2.8090160   -2.6621811    2.0638753 
H    -2.7163228   -3.5995356   -1.1156463 
H    -3.4674192   -4.6306302    1.3264461 
C    -2.9574678    0.2289787   -1.7399157 
C    -4.2775835   -0.1293605   -1.8879511 
C    -4.8768477    0.8757867   -2.7129792 
C    -3.8916210    1.7860443   -3.0221590 
H    -4.7548504   -1.0055765   -1.4500379 
H    -5.9177678    0.9283132   -3.0322840 
O    -2.2906685   -1.5559582    1.4425230 
O    -2.7131257    1.4017568   -2.4265209 
C    -2.9896345   -2.5773378    3.5402311 
H    -2.0341559   -2.3527005    4.0475384 
H    -3.7062004   -1.7792237    3.8061617 
H    -3.3750849   -3.5330747    3.9258116 
C    -3.8593134    3.0445778   -3.8182431 
H    -3.5885768    3.9113163   -3.1873050 
H    -3.1164791    2.9827371   -4.6337991 
H    -4.8493517    3.2320996   -4.2605721 
