132
Energy =
C     2.1204541   -1.3146221   -2.5271852 
C     2.1998046    0.0998068   -2.5168141 
C     2.6843527    0.7998824   -1.3751269 
H     1.7661898    0.6723323   -3.3468250 
Pd    0.8704594   -0.3939164   -0.8448659 
P     0.3793618    0.7466759    1.1524613 
P    -0.9887342   -1.8422704   -0.7216872 
H     2.7778662   -1.8513069   -1.8257783 
H     3.4135154    0.2795402   -0.7364842 
C     0.7481825   -3.7641562   -5.7936013 
C     1.5935447   -4.2902808   -4.8056314 
C     2.0292771   -3.4808242   -3.7490154 
C     1.6350093   -2.1261375   -3.6575780 
C     0.8059808   -1.6041857   -4.6780545 
C     0.3631623   -2.4141229   -5.7277950 
H     0.4017517   -4.3963716   -6.6173952 
H     1.9195970   -5.3340318   -4.8605137 
H     2.6960667   -3.8982839   -2.9863478 
H     0.4962390   -0.5550581   -4.6468837 
H    -0.2847584   -1.9905949   -6.5023421 
C     2.8344217    5.0935313   -1.0937636 
C     1.7830296    4.4771090   -1.7939266 
C     1.7235567    3.0828003   -1.8907518 
C     2.7153140    2.2742094   -1.2886220 
C     3.7649860    2.9074434   -0.5910903 
C     3.8253082    4.3033322   -0.4942631 
H     2.8763009    6.1845418   -1.0129841 
H     1.0044448    5.0882972   -2.2634521 
H     0.8885379    2.6100863   -2.4215920 
H     4.5395449    2.2966874   -0.1164929 
H     4.6418817    4.7709414    0.0653571 
Fe    1.3499795   -2.1844419    2.7171915 
C     0.1415142   -0.5682515    2.3768311 
C    -0.5836357   -1.8162288    2.1634407 
C    -0.5233068   -2.5413860    3.4094005 
C     0.2197082   -1.7789821    4.3660638 
C     0.6374015   -0.5661102    3.7353249 
C     3.3478509   -2.2969827    3.1685159 
C     2.6682250   -3.5150355    3.5103886 
C     2.0744641   -4.0469217    2.3149505 
C     2.3925933   -3.1562316    1.2364664 
C     3.1808754   -2.0853004    1.7605901 
C    -1.1321908    1.7743536    1.2439051 
C    -2.0962104    1.5740516    2.2477698 
C    -3.2664249    2.3510918    2.2850617 
C    -3.4408992    3.3520088    1.3004981 
C    -2.4618534    3.6077736    0.3109579 
C    -1.3179676    2.7949805    0.2934639 
C     1.6601981    1.8596598    1.8734812 
C     1.4535795    3.2458999    1.9811761 
C     2.4585087    4.0997448    2.4699101 
C     3.6863688    3.5301098    2.8699868 
C     3.9210185    2.1382957    2.7811395 
C     2.8999633    1.3241220    2.2729769 
C    -1.5103903   -2.2789261    1.0518335 
H    -0.9647331   -3.5262229    3.5794167 
H     0.4602222   -2.0860146    5.3855309 
H     1.2349054    0.2273691    4.1859853 
H     3.8815646   -1.6441177    3.8615845 
H     2.5941684   -3.9478228    4.5096681 
H     1.4799890   -4.9598724    2.2476561 
H     2.0972461   -3.2623740    0.1971235 
H     3.5877829   -1.2636588    1.1709386 
H    -1.9420270    0.8034216    3.0108183 
H    -0.5549658    2.9673065   -0.4738398 
H     0.5058519    3.6916179    1.6688966 
H     3.0572194    0.2482466    2.2067105 
H    -1.4391493   -3.3816303    1.0529795 
H    -0.6808245   -3.3303704   -2.5911785 
H    -3.3453484   -1.7023138   -1.3533918 
C    -3.4706536   -0.5512647   -3.8963490 
C    -2.2562115   -1.1203736   -3.1402684 
C    -2.4706598   -1.0765014   -1.6094893 
C    -2.7609163    0.3735407   -1.1903990 
C    -3.9851926    0.9425917   -1.9264067 
C    -3.8027745    0.8801691   -3.4494124 
H    -4.3456431   -1.2062008   -3.7149779 
H    -3.2730503   -0.5851657   -4.9832434 
H    -1.3582723   -0.5184767   -3.3757299 
H    -2.0509050   -2.1420140   -3.4990950 
H    -2.9094294    0.4570252   -0.1039110 
H    -1.8724624    0.9857556   -1.4315785 
H    -4.8868591    0.3678865   -1.6349731 
H    -4.1542307    1.9818564   -1.5937697 
H    -2.9733193    1.5548665   -3.7419569 
H    -4.7071321    1.2464947   -3.9675643 
C    -2.2640058   -5.6361251   -2.1971550 
C    -2.3204636   -4.2596120   -1.5079131 
C    -0.9457980   -3.5485953   -1.5389966 
C     0.1615957   -4.4553240   -0.9739924 
C     0.1804231   -5.8443033   -1.6377750 
C    -1.1891326   -6.5327128   -1.5678055 
H    -2.0402730   -5.4926928   -3.2725232 
H    -3.2583376   -6.1140331   -2.1393266 
H    -2.6401523   -4.4029491   -0.4568965 
H    -3.0932409   -3.6411427   -1.9944438 
H     1.1338698   -3.9643792   -1.1355885 
H     0.0348596   -4.5750682    0.1195783 
H     0.4692914   -5.7262677   -2.6986219 
H     0.9601214   -6.4654785   -1.1607594 
H    -1.4519490   -6.7355243   -0.5102825 
H    -1.1535804   -7.5114504   -2.0783471 
C    -2.9739091   -1.9220427    1.4069591 
H    -3.1300166   -0.8327178    1.4382687 
H    -3.6855578   -2.3616011    0.6889655 
H    -3.2092742   -2.3228912    2.4076697 
C    -4.3199243    2.1537581    3.3487685 
H    -4.5721658    3.1138232    3.8301733 
H    -5.2575445    1.7617259    2.9136276 
H    -3.9785354    1.4436192    4.1189757 
C    -2.6417462    4.7254426   -0.6895763 
H    -3.1752788    4.3750427   -1.5937752 
H    -3.2320619    5.5469898   -0.2524673 
H    -1.6651487    5.1190130   -1.0170415 
O    -4.5649531    4.1437246    1.3816570 
C    -5.6404485    3.8092507    0.4951102 
H    -6.4774011    4.4727114    0.7589089 
H    -5.3642562    3.9749828   -0.5634564 
H    -5.9495802    2.7542993    0.6237183 
C     2.2439289    5.5940118    2.5172281 
H     1.8375942    5.9140172    3.4950577 
H     3.1963187    6.1265999    2.3605779 
H     1.5277580    5.9093599    1.7410388 
C     5.2613289    1.5722186    3.1867197 
H     5.4316577    1.6777539    4.2736368 
H     5.3355561    0.5019622    2.9327628 
H     6.0810263    2.1159355    2.6859228 
O     4.7342966    4.3369792    3.2584040 
C     4.7217347    4.7893582    4.6199978 
H     5.6353508    5.3871689    4.7552551 
H     3.8373837    5.4184340    4.8328895 
H     4.7324312    3.9346279    5.3228186 
