124
Energy =
C     1.8141276    1.5078676    2.1493720 
C     2.0498043    0.1878604    2.6719467 
C     2.8080619   -0.7448808    1.9466205 
H     1.5589084   -0.1204447    3.6043433 
Pd    0.8586637    0.0442078    0.8037569 
P    -0.3075169   -1.8434391    0.0362098 
P    -0.0269445    1.5660162   -0.7505435 
H     2.6392375    1.9543124    1.5799647 
H     3.3467984   -0.3658451    1.0639041 
C    -0.8075044    4.3113293    4.1190227 
C    -1.0748846    2.9333195    4.1806287 
C    -0.2280826    2.0215720    3.5421071 
C     0.9171314    2.4625430    2.8351951 
C     1.1767572    3.8514940    2.7905365 
C     0.3217507    4.7651182    3.4209452 
H    -1.4741917    5.0247708    4.6138445 
H    -1.9547009    2.5695243    4.7215961 
H    -0.4660517    0.9518042    3.5737359 
H     2.0655859    4.2166588    2.2659988 
H     0.5447535    5.8362801    3.3758219 
C     4.0387843   -4.6924477    3.1054715 
C     4.3290791   -4.1958536    1.8251254 
C     3.9295243   -2.9030602    1.4706026 
C     3.2183317   -2.0840784    2.3794201 
C     2.9646979   -2.5871834    3.6781619 
C     3.3662448   -3.8779284    4.0329575 
H     4.3511164   -5.7029843    3.3877876 
H     4.8696917   -4.8164597    1.1030187 
H     4.1592989   -2.5172445    0.4714048 
H     2.4547057   -1.9634390    4.4188689 
H     3.1622040   -4.2511854    5.0417473 
Fe   -2.4567223    0.6194429   -3.3978189 
C    -0.7754788    0.7378541   -2.2080191 
C    -1.3679435   -0.5945151   -2.1946512 
C    -1.3744690   -1.0916916   -3.5458630 
C    -0.8351445   -0.0796920   -4.4049681 
C    -0.4861057    1.0494109   -3.5970169 
C    -4.4178539    0.5422081   -2.7993768 
C    -3.9754554    1.9041163   -2.8499915 
C    -3.5216074    2.1868152   -4.1800728 
C    -3.6994274    0.9967161   -4.9630968 
C    -4.2523788   -0.0196766   -4.1103218 
C    -1.8244176   -1.3349854   -0.9692692 
H    -1.7686069   -2.0551453   -3.8721173 
H    -0.7460719   -0.1413977   -5.4909588 
H    -0.0555600    1.9788862   -3.9710758 
H    -4.8209155    0.0328371   -1.9219869 
H    -3.9920160    2.6062444   -2.0188685 
H    -3.1180496    3.1368635   -4.5343023 
H    -3.4410534    0.8759887   -6.0167129 
H    -4.4875779   -1.0435505   -4.4073608 
H    -2.3348223   -0.6115662   -0.3112004 
C    -2.7824636   -2.4956432   -1.2844417 
H    -3.5950983   -2.1298684   -1.9345731 
H    -2.2764419   -3.3197573   -1.8154719 
H    -3.2352491   -2.9105056   -0.3700790 
H     0.8487682    3.0416977   -2.4392625 
C     3.5167472    2.3994938   -2.8836148 
C     2.4499564    1.6149161   -2.0997202 
C     1.3409705    2.5548138   -1.5750397 
C     1.9525106    3.6691289   -0.7043479 
C     3.0005830    4.4650510   -1.5048407 
C     4.1072339    3.5453917   -2.0461334 
H     3.0539342    2.8147734   -3.8007070 
H     4.3138079    1.7111821   -3.2179264 
H     2.9164976    1.1071255   -1.2308593 
H     2.0182981    0.8206712   -2.7328729 
H     1.1752264    4.3468893   -0.3129535 
H     2.4457980    3.2121976    0.1692379 
H     2.5000278    4.9803451   -2.3481255 
H     3.4324309    5.2550936   -0.8644381 
H     4.6730271    3.1190633   -1.1935972 
H     4.8310114    4.1257759   -2.6453050 
H    -0.6208989    3.2310281    0.8239629 
C    -3.3762717    3.0795919    1.2645071 
C    -2.4304430    2.0843768    0.5697217 
C    -1.2003892    2.8066632   -0.0198623 
C    -1.6058429    3.9451695   -0.9764173 
C    -2.5536343    4.9334020   -0.2675088 
C    -3.7841452    4.2329830    0.3330852 
H    -2.8585600    3.4936242    2.1497437 
H    -4.2705261    2.5472344    1.6364830 
H    -2.9603469    1.5611502   -0.2497659 
H    -2.0936828    1.3122929    1.2866238 
H    -0.7145104    4.4882271   -1.3358342 
H    -2.0879713    3.5067818   -1.8684626 
H    -1.9931586    5.4370386    0.5443823 
H    -2.8653291    5.7223759   -0.9754135 
H    -4.4253467    3.8440756   -0.4823146 
H    -4.4034816    4.9633425    0.8834610 
H    -0.2057208   -3.3275289   -1.8681975 
C     1.8251837   -5.1897930   -1.5466505 
C     1.1313762   -4.3094458   -0.4901135 
C     0.5658235   -3.0266787   -1.1322317 
C     1.6659380   -2.2474757   -1.8909545 
C     2.3646863   -3.1366731   -2.9331137 
C     2.9246533   -4.4180881   -2.2947763 
H     1.0709665   -5.5498343   -2.2740833 
H     2.2456571   -6.0871278   -1.0579168 
H     1.8652124   -4.0384166    0.2901341 
H     0.3266346   -4.8816558    0.0046776 
H     1.2302247   -1.3574991   -2.3770549 
H     2.4047595   -1.8742081   -1.1548010 
H     1.6356599   -3.4069396   -3.7223980 
H     3.1688715   -2.5643527   -3.4302181 
H     3.7296185   -4.1491501   -1.5819271 
H     3.3880386   -5.0606481   -3.0644135 
H    -1.5440556   -3.6934130    1.0628418 
C    -2.7894705   -2.6072370    3.3677558 
C    -2.1679487   -1.9035102    2.1469283 
C    -1.0783286   -2.7767730    1.4753594 
C    -0.0187928   -3.1603790    2.5277947 
C    -0.6387900   -3.8823614    3.7348339 
C    -1.7252673   -3.0211513    4.3952552 
H    -3.3350151   -3.5072461    3.0221463 
H    -3.5410163   -1.9421958    3.8302703 
H    -1.6992746   -0.9488278    2.4644053 
H    -2.9680560   -1.6386155    1.4353059 
H     0.7842401   -3.7719427    2.0898999 
H     0.4564302   -2.2238396    2.8737054 
H    -1.0761032   -4.8445601    3.4034414 
H     0.1583292   -4.1310878    4.4584812 
H    -1.2574155   -2.1110433    4.8225402 
H    -2.1937905   -3.5608620    5.2372307 
