90
Energy =
C     2.3830574   -0.4841992    2.0117311 
C     2.8325723   -0.0962824    0.7439432 
C     2.6120003    1.2294203    0.2377928 
H     3.3273486   -0.8296743    0.0945747 
Pd    0.6487464    0.2433869    0.4166267 
P    -0.5770408    1.9889787   -0.5866907 
P    -1.0460986   -1.4542304    0.5708212 
H     1.9835481    0.3063978    2.6648148 
H     2.5956677    2.0378215    0.9819240 
C     3.2147540   -4.1532720    4.0781523 
C     2.4786325   -3.1311051    4.6978829 
C     2.2198240   -1.9405773    4.0110255 
C     2.6781454   -1.7507775    2.6844908 
C     3.4425306   -2.7820651    2.0836829 
C     3.7037276   -3.9687885    2.7733680 
H     3.4202761   -5.0852527    4.6143371 
H     2.1120853   -3.2610117    5.7211585 
H     1.6519685   -1.1419944    4.4998119 
H     3.8424582   -2.6550420    1.0731675 
H     4.2969358   -4.7547425    2.2950856 
C     4.0487731    2.3273745   -3.6754278 
C     3.4039331    1.0939229   -3.4831588 
C     2.9450732    0.7325005   -2.2121067 
C     3.1130125    1.5990269   -1.1060938 
C     3.7788293    2.8272750   -1.3112694 
C     4.2409440    3.1878056   -2.5840086 
H     4.4045433    2.6125883   -4.6706367 
H     3.2552156    0.4153537   -4.3296773 
H     2.4259883   -0.2234983   -2.0695425 
H     3.9390468    3.5017632   -0.4637559 
H     4.7567366    4.1435385   -2.7234096 
Fe   -2.6107559   -0.2564310   -2.3153746 
C    -1.5155704    1.4005283   -2.0253115 
C    -2.8118938    1.7551902   -2.5626476 
H    -3.5485278    2.4122385   -2.0996718 
C    -2.9701292    1.0889588   -3.8210459 
H    -3.8602972    1.1264095   -4.4518431 
C    -1.7803828    0.3336561   -4.0865022 
H    -1.6066156   -0.3035854   -4.9553869 
C    -0.8790916    0.5219262   -2.9886553 
C    -2.3419466   -1.4929613   -0.7362503 
C    -2.2783322   -2.2257229   -1.9855140 
H    -1.4290266   -2.7988427   -2.3581883 
C    -3.5198362   -2.0523054   -2.6799065 
H    -3.7604697   -2.4608287   -3.6629205 
C    -4.3642997   -1.2160261   -1.8816951 
H    -5.3692438   -0.8794143   -2.1421241 
C    -3.6499329   -0.8691231   -0.6884916 
C    -0.3214998   -3.1896341    0.3201507 
C    -2.1080681   -1.4448946    2.1256848 
H     0.1133387    0.0809438   -2.8778061 
H    -4.0440107   -0.2526332    0.1176673 
C    -1.7081716    2.8495530    0.6563922 
C     0.3501884    3.4360485   -1.3830838 
H    -1.1494093   -3.7611793   -0.1368045 
H    -2.6813197   -0.5104256    1.9741348 
H    -1.8499216    3.8637431    0.2367589 
H     1.1477065    2.9259745   -1.9522049 
C    -3.0865039    2.2096579    0.8585388 
H    -3.6805268    2.8396765    1.5439738 
H    -3.6521261    2.0894219   -0.0757023 
H    -2.9863087    1.2177570    1.3286868 
C    -0.9818245    2.9572472    2.0140446 
H    -1.5833127    3.5691034    2.7094943 
H    -0.8580984    1.9530021    2.4591558 
H     0.0152639    3.4163209    1.9364107 
C     1.0007508    4.3798167   -0.3593149 
H     1.6857707    5.0659955   -0.8866430 
H     0.2466598    4.9987822    0.1577774 
H     1.5880646    3.8442048    0.4027099 
C    -0.5210816    4.2278861   -2.3758988 
H     0.0766418    5.0607872   -2.7878104 
H    -0.8616030    3.6073131   -3.2189420 
H    -1.4089878    4.6702248   -1.8878817 
C     0.8427402   -3.0933438   -0.6857007 
H     1.1478862   -4.1039154   -1.0106805 
H     0.5836604   -2.5057708   -1.5838989 
H     1.7142692   -2.6100430   -0.2131791 
C     0.1134329   -3.9151705    1.6025233 
H     0.5965330   -4.8693317    1.3263485 
H     0.8438192   -3.3328318    2.1802634 
H    -0.7384154   -4.1541902    2.2566104 
C    -3.1153283   -2.6030298    2.2334811 
H    -3.8170417   -2.4017301    3.0626791 
H    -3.7062958   -2.7234013    1.3106965 
H    -2.6159622   -3.5612681    2.4497577 
C    -1.2638337   -1.2524022    3.3960752 
H    -1.9270604   -1.0633560    4.2585893 
H    -0.6567567   -2.1419035    3.6271917 
H    -0.5801407   -0.3913130    3.2926707 
