124
Energy =
C     1.4580814    2.6993479   -1.4332776 
C     0.5202175    3.2975093   -0.5475665 
C     0.6331899    3.1970342    0.8568401 
H    -0.3766306    3.7661871   -0.9705327 
Pd    0.4517966    1.1166093   -0.1669180 
P    -0.7379562   -0.0926128    1.4595971 
P     1.0183952   -0.7504502   -1.4885604 
H     2.4781017    2.5432606   -1.0528268 
H     1.6252486    2.9486081    1.2625681 
C     1.2213274    3.0406727   -5.7263097 
C     2.4453720    2.7755955   -5.0946535 
C     2.5096178    2.6747282   -3.6987683 
C     1.3496110    2.8142520   -2.9020434 
C     0.1234296    3.0837514   -3.5555834 
C     0.0632632    3.2054330   -4.9476430 
H     1.1690942    3.1253509   -6.8163556 
H     3.3572255    2.6592557   -5.6895731 
H     3.4761937    2.4999297   -3.2132024 
H    -0.7985600    3.1795618   -2.9727169 
H    -0.8956898    3.4168750   -5.4317364 
C    -1.9402702    5.1791040    3.6891532 
C    -2.3833735    4.9726162    2.3722389 
C    -1.5655195    4.3199944    1.4441019 
C    -0.2767784    3.8620625    1.8075346 
C     0.1620401    4.0988746    3.1313138 
C    -0.6601017    4.7435204    4.0628037 
H    -2.5846557    5.6866937    4.4140033 
H    -3.3750923    5.3229474    2.0680335 
H    -1.9399344    4.1556139    0.4286822 
H     1.1672177    3.7809859    3.4275828 
H    -0.2962893    4.9148138    5.0811818 
Fe   -1.4519887   -3.6565762    1.3172299 
C    -1.3387811   -1.6848158    0.7877838 
C    -0.5668030   -2.5241735   -0.1217122 
C    -1.4670177   -3.4822233   -0.7098374 
C    -2.7768035   -3.2649353   -0.1752486 
C    -2.7049435   -2.1751389    0.7500541 
C    -0.9258055   -3.9470695    3.2809929 
C    -2.2593455   -4.4132298    3.0359418 
C    -2.1932713   -5.4188836    2.0130299 
C    -0.8184907   -5.5697279    1.6245829 
C    -0.0336166   -4.6584194    2.4079346 
C     0.8837011   -2.3475780   -0.4865636 
H    -1.1946604   -4.2653458   -1.4185036 
H    -3.6681695   -3.8529861   -0.3998722 
H    -3.5448323   -1.7914351    1.3266202 
H    -0.6404310   -3.1887502    4.0104774 
H    -3.1648503   -4.0595500    3.5322089 
H    -3.0413856   -5.9594442    1.5888497 
H    -0.4415038   -6.2522988    0.8605731 
H     1.0506317   -4.5411483    2.3585896 
H     1.4541187   -2.1103247    0.4241365 
C     1.4813616   -3.6124883   -1.1247488 
H     1.1624054   -4.4885964   -0.5338120 
H     1.1463602   -3.7632536   -2.1650869 
H     2.5800483   -3.5826923   -1.1192087 
H    -1.8326195    1.8411929    2.2719496 
C    -4.2675299    1.1720636    3.4887338 
C    -3.0371483    0.3013758    3.1712753 
C    -2.2601273    0.8686284    1.9606054 
C    -3.1527264    1.1474475    0.7255222 
C    -4.4030446    1.9661243    1.0937640 
C    -5.1759466    1.3296516    2.2594317 
H    -3.9257552    2.1720219    3.8207930 
H    -4.8243283    0.7278675    4.3332545 
H    -3.3625494   -0.7364077    2.9781701 
H    -2.3765956    0.2588658    4.0550662 
H    -2.5511496    1.6771761   -0.0381444 
H    -3.4676470    0.1971117    0.2593376 
H    -4.0981984    2.9872120    1.3862448 
H    -5.0499481    2.0668902    0.2037031 
H    -5.5592338    0.3352572    1.9539270 
H    -6.0589606    1.9434946    2.5113507 
H    -0.5645965   -1.0267685    3.6660692 
C     1.2634986    0.5515169    5.1189002 
C     0.5380974    0.8467410    3.7938421 
C     0.1613092   -0.4524809    3.0592739 
C     1.4111786   -1.3232813    2.8322677 
C     2.1405624   -1.6188616    4.1548692 
C     2.5072355   -0.3235912    4.8965451 
H     0.5655865    0.0347102    5.8065570 
H     1.5395273    1.5032737    5.6078351 
H     1.2058091    1.4314301    3.1336344 
H    -0.3497117    1.4739589    3.9809048 
H     1.1127628   -2.2634287    2.3400564 
H     2.0973976   -0.7877439    2.1445648 
H     1.4863079   -2.2379180    4.7997791 
H     3.0437361   -2.2226587    3.9534748 
H     3.2479598    0.2416846    4.2964294 
H     2.9928459   -0.5563172    5.8607204 
H    -0.1804886   -2.1355060   -3.0716608 
C    -0.5652977   -0.7036500   -5.4461300 
C     0.4283581   -0.4492371   -4.2973369 
C    -0.0988425   -1.0346197   -2.9690890 
C    -1.5048806   -0.4652120   -2.6511105 
C    -2.4898163   -0.7337982   -3.8003431 
C    -1.9672114   -0.1613201   -5.1267284 
H    -0.6286764   -1.7932118   -5.6384848 
H    -0.1735530   -0.2407886   -6.3698305 
H     0.5817200    0.6358774   -4.1809244 
H     1.4066406   -0.8818586   -4.5592539 
H    -1.8913984   -0.8892131   -1.7097908 
H    -1.4051007    0.6271537   -2.4911015 
H    -2.6403250   -1.8271801   -3.8990807 
H    -3.4757737   -0.3019013   -3.5494912 
H    -1.9192098    0.9422757   -5.0503459 
H    -2.6652145   -0.3940741   -5.9507112 
H     2.7315121    0.3782687   -2.6130613 
C     4.8434602   -1.0795361   -3.3994536 
C     3.4761176   -1.6132574   -2.9296633 
C     2.7986753   -0.5580314   -2.0254556 
C     3.6892862   -0.2818272   -0.7893053 
C     5.0819187    0.2137308   -1.2204872 
C     5.7546419   -0.7614372   -2.2016648 
H     4.6885014   -0.1659537   -4.0070857 
H     5.3248107   -1.8217211   -4.0610327 
H     3.6388920   -2.5462657   -2.3648127 
H     2.8438695   -1.8721382   -3.7946252 
H     3.2035738    0.4561386   -0.1210369 
H     3.7938287   -1.2153378   -0.2011591 
H     4.9731954    1.2050464   -1.7038584 
H     5.7178040    0.3666626   -0.3300265 
H     5.9906345   -1.7040628   -1.6694193 
H     6.7178523   -0.3472943   -2.5489253 
