90
Energy =
C     2.9853411    0.6875962   -0.6318791 
C     3.0032987   -0.0371042    0.5779414 
C     2.6600345   -1.4171785    0.6073530 
H     3.2206493    0.4825648    1.5195226 
Pd    0.8763009   -0.1750947   -0.0302780 
P    -0.8577087   -1.6408665    0.6287645 
P    -0.5556762    1.5575133   -0.8859097 
H     3.0015498    0.0920420   -1.5566340 
H     2.7832019   -1.9700021   -0.3357040 
C     4.3329882    4.7324809   -1.2231773 
C     4.2068470    3.8493959   -2.3061427 
C     3.7653895    2.5385962   -2.0932677 
C     3.4312680    2.0802861   -0.7959005 
C     3.5878268    2.9772117    0.2873183 
C     4.0301461    4.2865214    0.0745013 
H     4.6776598    5.7587191   -1.3854490 
H     4.4610913    4.1803076   -3.3183493 
H     3.6838264    1.8494407   -2.9402977 
H     3.3584591    2.6531540    1.3068394 
H     4.1427787    4.9649740    0.9264615 
C     2.8988577   -3.9049110    4.1144129 
C     2.6091481   -2.5364525    4.2503858 
C     2.5359447   -1.7160692    3.1202913 
C     2.7433331   -2.2455168    1.8252477 
C     3.0552105   -3.6194692    1.7069057 
C     3.1306164   -4.4407095    2.8387571 
H     2.9522273   -4.5464560    4.9998202 
H     2.4376798   -2.1088227    5.2437209 
H     2.2983881   -0.6540552    3.2425714 
H     3.2420378   -4.0434004    0.7147496 
H     3.3746202   -5.5019564    2.7246444 
Fe   -2.9929475   -0.6536336   -1.8370497 
C    -1.9381365   -1.9895745   -0.7886056 
C    -1.4408803   -1.8949244   -2.1493863 
H    -0.4310188   -1.5836748   -2.4290304 
C    -2.5049265   -2.2362242   -3.0437598 
H    -2.4541410   -2.2217625   -4.1338349 
C    -3.6609435   -2.5542421   -2.2588220 
H    -4.6447698   -2.8249479   -2.6465577 
C    -3.3212193   -2.4190135   -0.8742903 
C    -2.2398094    1.1905078   -1.5131281 
C    -3.4083421    0.9606688   -0.6826618 
H    -3.4476493    1.0107930    0.4055510 
C    -4.5261612    0.6774280   -1.5326587 
H    -5.5376922    0.4434971   -1.1966477 
C    -4.0773555    0.7299027   -2.8902073 
H    -4.6827418    0.5361953   -3.7772808 
C    -2.6780305    1.0406837   -2.8881239 
C    -0.9423273    2.7417688    0.5319379 
C     0.2944794    2.4890008   -2.2741875 
H    -4.0003442   -2.5968640   -0.0415145 
H    -2.0568981    1.1238073   -3.7787736 
C    -0.3624316   -3.3579372    1.1991737 
C    -1.8238022   -0.7932654    2.0028838 
H    -1.4932359    2.0643668    1.2140776 
H     1.2068427    2.8557381   -1.7685043 
H     0.4335537   -3.1794527    1.9438443 
H    -1.8721887    0.2390917    1.6118094 
C    -1.4864391   -4.1767141    1.8559128 
H    -1.1090880   -5.1918782    2.0744739 
H    -1.8209183   -3.7393768    2.8097894 
H    -2.3589132   -4.2834206    1.1876083 
C     0.2392649   -4.1105929   -0.0017307 
H     0.7326917   -5.0324500    0.3507578 
H    -0.5458027   -4.3935942   -0.7242199 
H     0.9900347   -3.5042802   -0.5371426 
C    -0.9451444   -0.7534487    3.2671739 
H    -1.4264849   -0.1211013    4.0338100 
H    -0.7948742   -1.7560071    3.7026846 
H     0.0475638   -0.3274640    3.0441686 
C    -3.2660873   -1.2417219    2.2880260 
H    -3.6782942   -0.6121633    3.0974755 
H    -3.9095441   -1.1097321    1.4047381 
H    -3.3310795   -2.2895114    2.6179417 
C     0.3414530    3.1749922    1.2538113 
H     0.0865960    3.7586691    2.1559402 
H     0.9374753    2.2990618    1.5651611 
H     0.9731945    3.8097043    0.6097602 
C    -1.8614771    3.9318486    0.2058838 
H    -2.2664211    4.3427781    1.1477972 
H    -1.3065096    4.7421765   -0.2930224 
H    -2.7122859    3.6466584   -0.4344556 
C     0.7461921    1.5022437   -3.3708638 
H     1.4449964    2.0110091   -4.0570690 
H     1.2590013    0.6231938   -2.9445833 
H    -0.0986633    1.1347516   -3.9753536 
C    -0.4540852    3.6976374   -2.8637387 
H     0.1187333    4.0875644   -3.7241932 
H    -1.4631915    3.4343466   -3.2216313 
H    -0.5521119    4.5161493   -2.1363831 
