110
Energy =
C     2.9339625   -0.8790897    1.2207369 
C     3.3874387   -0.1081726    0.1316408 
C     3.0150940    1.2672089    0.0054318 
H     3.9337989   -0.6018273   -0.6825216 
Pd    1.1845894   -0.0164431   -0.0320534 
P    -0.2250777    1.7373651   -0.7260507 
P    -0.3148877   -1.8430007   -0.1433112 
H     2.4633604   -0.3441127    2.0618223 
H     2.9046005    1.8239337    0.9431255 
C     4.1071286   -4.9102436    2.1216791 
C     2.9403778   -4.3666483    2.6832013 
C     2.5702476   -3.0522343    2.3878208 
C     3.3431357   -2.2607386    1.5072749 
C     4.5186841   -2.8193451    0.9543369 
C     4.8985934   -4.1294462    1.2651031 
H     4.4024285   -5.9375506    2.3580104 
H     2.3192112   -4.9718521    3.3508670 
H     1.6581210   -2.6290432    2.8209181 
H     5.1563804   -2.2144369    0.3016510 
H     5.8199309   -4.5424324    0.8416643 
C     4.1360123    3.6888502   -3.3677962 
C     3.9191506    2.3113733   -3.5397682 
C     3.5268685    1.5199548   -2.4569875 
C     3.3573669    2.0872310   -1.1713712 
C     3.5458138    3.4796003   -1.0204533 
C     3.9369398    4.2713880   -2.1076054 
H     4.4454650    4.3064171   -4.2172229 
H     4.0437224    1.8559287   -4.5271949 
H     3.3319921    0.4530483   -2.6116532 
H     3.3986509    3.9384277   -0.0368446 
H     4.0928662    5.3462225   -1.9678329 
Fe   -2.3613877    0.2327061    3.6530690 
C    -1.3127585   -0.5368526    2.0960216 
C    -1.8831998    0.7520347    1.7315433 
C    -1.3991271    1.7263926    2.6802543 
H    -1.6726931    2.7819540    2.6829595 
C    -0.5134250    1.0718834    3.5973256 
H    -0.0109376    1.5378610    4.4471055 
C    -0.4553498   -0.3144354    3.2366405 
H     0.1000818   -1.0914588    3.7669186 
C    -3.3166251   -1.2298586    4.7182543 
H    -3.0943534   -2.2984803    4.6950139 
C    -4.2518099   -0.5387500    3.8767421 
H    -4.8786327   -0.9956841    3.1092260 
C    -4.2273707    0.8523646    4.2341203 
H    -4.8154240    1.6487549    3.7741352 
C    -3.2828124    1.0186571    5.2997651 
H    -3.0176231    1.9624737    5.7798775 
C    -2.7195172   -0.2669766    5.5990064 
H    -1.9522266   -0.4720532    6.3480067 
C    -2.6936942    1.0893548    0.5283838 
C    -2.0654401    1.5332132   -0.6696818 
C    -2.8529288    1.8794486   -1.7854127 
H    -2.3692341    2.2154217   -2.7073851 
C    -4.2501370    1.7854081   -1.7350444 
H    -4.8445572    2.0562687   -2.6136102 
C    -4.8755371    1.3450211   -0.5615792 
H    -5.9665624    1.2695391   -0.5100087 
C    -4.0989788    1.0087365    0.5562630 
H    -4.5736870    0.6775389    1.4822740 
C    -1.2936709   -1.9514134   -1.7123794 
C    -0.6734280   -2.5427970   -2.8388688 
H     0.3177582   -2.9959371   -2.7496238 
C    -1.3167462   -2.5625210   -4.0821490 
C    -2.5954534   -2.0018789   -4.2266048 
H    -3.1001366   -2.0207846   -5.1979637 
C    -3.2228056   -1.4261950   -3.1148644 
C    -2.5787312   -1.3942447   -1.8691361 
H    -3.0897642   -0.9252455   -1.0290684 
C     0.4801193   -3.5065158   -0.1395492 
C    -0.1520092   -4.6444432    0.4017622 
H    -1.1295989   -4.5657621    0.8864830 
C     0.4603711   -5.9019784    0.3127997 
C     1.7007883   -6.0403160   -0.3269699 
H     2.1752824   -7.0243880   -0.3973158 
C     2.3351963   -4.9141457   -0.8701810 
C     1.7333783   -3.6535893   -0.7676087 
H     2.2426495   -2.7691177   -1.1681091 
C    -1.4414078   -1.8662382    1.3873211 
H    -0.8913843   -2.5929545    2.0120632 
C    -2.8765760   -2.3927873    1.2012114 
H    -3.2567593   -2.7382843    2.1758251 
H    -3.5528543   -1.6042969    0.8419277 
H    -2.9209240   -3.2323585    0.4879279 
C     0.6966389    2.4747904   -5.2248726 
C     0.2516634    1.2246652   -4.7653201 
C    -0.0202708    1.0332586   -3.4063194 
C     0.1331679    2.0991882   -2.4915816 
C     0.5936328    3.3458807   -2.9538962 
C     0.8722933    3.5274460   -4.3167983 
H     0.9129761    2.6246105   -6.2877924 
H     0.1154411    0.3924487   -5.4638577 
H    -0.3652240    0.0558314   -3.0564121 
H     0.7558693    4.1721433   -2.2571892 
H     1.2387641    4.4986546   -4.6639673 
C     0.0933443    5.7998534    1.5451218 
C    -0.7529882    5.6695604    0.4323557 
C    -0.8366509    4.4487726   -0.2496347 
C    -0.0578618    3.3464398    0.1650605 
C     0.7647308    3.4787959    1.2973447 
C     0.8447585    4.6995727    1.9820006 
H     0.1551576    6.7542686    2.0781839 
H    -1.3565326    6.5194938    0.0974736 
H    -1.5163261    4.3518692   -1.1029284 
H     1.3096890    2.6090132    1.6700768 
H     1.4869646    4.7862251    2.8647613 
H    -0.8169805   -3.0259830   -4.9392068 
H    -4.2218776   -0.9888241   -3.2071352 
H    -0.0397907   -6.7783429    0.7379928 
H     3.3101001   -5.0122543   -1.3571896 
