86
Energy =
C    -1.1178214    2.6759968   -0.7426970 
C    -0.0728512    2.4711134   -1.6704631 
C    -0.1496378    1.4517907   -2.6586924 
H     0.8595980    3.0411928   -1.5730053 
Pd   -0.2132532    0.5538760   -0.5860435 
P     0.2609193   -1.7051932   -1.0881161 
P    -0.6067023    0.2232915    1.7386108 
H    -2.1074263    2.2815606   -1.0167593 
H    -1.1545888    1.1400287   -2.9806215 
C    -1.2539881    5.7111644    2.3029276 
C    -2.4255508    5.0640881    1.8819919 
C    -2.3658274    4.0870432    0.8807106 
C    -1.1336344    3.7292525    0.2844847 
C     0.0371278    4.4017765    0.7107656 
C    -0.0246978    5.3810959    1.7063105 
H    -1.2974013    6.4750017    3.0858457 
H    -3.3894254    5.3251402    2.3306644 
H    -3.2861232    3.5936931    0.5493252 
H     1.0084036    4.1404288    0.2787558 
H     0.8918075    5.8880643    2.0251665 
C     2.9348104    0.9923237   -5.6228874 
C     3.2835826    1.2794250   -4.2918900 
C     2.2895590    1.4153552   -3.3177148 
C     0.9248158    1.2666967   -3.6552064 
C     0.5874978    0.9783050   -4.9961151 
C     1.5841991    0.8443913   -5.9717674 
H     3.7145953    0.8814391   -6.3831040 
H     4.3370379    1.3854586   -4.0131207 
H     2.5720327    1.6012713   -2.2751147 
H    -0.4665269    0.8705369   -5.2760173 
H     1.3052705    0.6244363   -7.0073111 
Fe    1.4932994   -2.5093796    1.9425943 
C     0.1033439   -1.2163115    2.6294267 
C     1.2465101   -1.2747529    3.5195205 
H     1.9086913   -0.4503220    3.7762801 
C     1.3901731   -2.6238876    3.9834518 
H     2.1757378   -2.9856853    4.6492324 
C     0.3574664   -3.4166986    3.3879251 
H     0.2110839   -4.4898090    3.5222398 
C    -0.4365425   -2.5604142    2.5570715 
C     1.5673294   -2.3998125   -0.0524706 
C     1.8240905   -3.7616695    0.3727716 
H     1.2452954   -4.6458769    0.1077309 
C     2.9727714   -3.7470752    1.2279568 
H     3.3951880   -4.6149986    1.7376192 
C     3.4465422   -2.3980115    1.3317295 
H     4.2928911   -2.0609732    1.9326211 
C     2.5916585   -1.5626780    0.5441339 
H    -1.3065464   -2.8695001    1.9761054 
H     2.6678291   -0.4792055    0.4228698 
C     0.5305933   -2.4915953   -2.7681160 
C    -0.8355258   -2.2988239   -3.4633988 
C    -1.9667366   -2.2245819   -2.3831232 
C    -1.4050275   -2.5811593   -0.9742908 
H     0.6165623   -3.5549067   -2.4681365 
H    -0.8164472   -1.3714009   -4.0601921 
H    -1.0091104   -3.1274096   -4.1716663 
H    -2.3833468   -1.2018097   -2.3504885 
H    -2.8062070   -2.8983683   -2.6267024 
H    -1.9979865   -2.0723394   -0.1959276 
C    -2.4283167    0.0930123    2.2790040 
C    -2.5969408    1.1361178    3.4229478 
C    -1.2264018    1.4650414    4.0362492 
C    -0.2775418    1.6971815    2.8451712 
H    -2.5146331   -0.9226703    2.7010072 
H    -3.0225447    2.0632044    2.9963725 
H    -3.3139078    0.7638628    4.1748210 
H    -1.2750281    2.3662927    4.6739356 
H    -0.8582318    0.6334149    4.6668890 
H    -0.7164555    2.5084648    2.2389270 
C     1.1668220    2.0953071    3.1604959 
H     1.6155972    1.4620730    3.9417072 
H     1.8075268    2.0538611    2.2624439 
C    -3.4520667    0.2556794    1.1497892 
H    -3.3283975   -0.5081189    0.3628890 
H    -4.4761328    0.1639231    1.5534331 
C     1.7860906   -2.1447374   -3.5649312 
H     1.8503029   -2.7965398   -4.4542710 
H     2.6932303   -2.3135612   -2.9595538 
C    -1.3959243   -4.0904601   -0.6895734 
H    -2.4347173   -4.4661162   -0.7060784 
H    -0.9696237   -4.3161728    0.3010478 
H    -0.8313215   -4.6589713   -1.4480432 
H     1.7861754   -1.1026881   -3.9083095 
H    -3.3673676    1.2476484    0.6759676 
H     1.1804271    3.1343631    3.5319827 
