90
Energy =
C     3.0246524    0.6705381   -0.3229722 
C     2.8429530    0.2640232    1.0138521 
C     2.4981335   -1.0834598    1.3262810 
H     2.9090453    1.0041807    1.8209062 
Pd    0.8446554   -0.1096424    0.1326995 
P    -0.7719987   -1.8434989    0.4610299 
P    -0.4205890    1.5095283   -1.0745859 
H     3.1400785   -0.1297298   -1.0696489 
H     2.8153104   -1.8406111    0.5951221 
C     4.4617686    4.4705829   -1.7318724 
C     4.4293219    3.3528576   -2.5794410 
C     3.9609239    2.1246809   -2.1004577 
C     3.5072479    1.9853672   -0.7667025 
C     3.5811230    3.1145356    0.0842924 
C     4.0459619    4.3422763   -0.3954380 
H     4.8245253    5.4340369   -2.1040185 
H     4.7743939    3.4373786   -3.6149642 
H     3.9437636    1.2545213   -2.7648173 
H     3.2782886    3.0350887    1.1328468 
H     4.0921756    5.2045612    0.2775806 
C     2.1637142   -2.5564042    5.3611964 
C     1.8458500   -1.2178759    5.0777357 
C     1.9409847   -0.7319071    3.7699027 
C     2.3650769   -1.5708256    2.7135002 
C     2.6947512   -2.9125501    3.0174113 
C     2.5911830   -3.4012270    4.3256565 
H     2.0834742   -2.9362011    6.3847619 
H     1.5124453   -0.5524042    5.8807725 
H     1.6629799    0.3072385    3.5611365 
H     3.0495690   -3.5749015    2.2200702 
H     2.8539196   -4.4424863    4.5389265 
Fe   -3.2184332   -0.3498494   -1.3416558 
C    -2.5292543   -1.4223437    0.1906143 
C    -3.6321860   -2.1218114   -0.4478115 
H    -3.6068152   -3.1088303   -0.9024143 
C    -4.7901178   -1.2791169   -0.3980805 
H    -5.7647857   -1.5180641   -0.8271172 
C    -4.4417942   -0.0707293    0.2854294 
H    -5.1021744    0.7775437    0.4728843 
C    -3.0637980   -0.1579921    0.6607827 
C    -1.8135601    0.8694865   -2.0583592 
C    -3.1302591    1.3983808   -2.3681715 
H    -3.5351267    2.3609139   -2.0621884 
C    -3.8347687    0.4211184   -3.1448250 
H    -4.8619685    0.5159948   -3.5012745 
C    -2.9714368   -0.7033331   -3.3501104 
H    -3.2230441   -1.6170204   -3.8912923 
C    -1.7272877   -0.4310527   -2.6967881 
C    -1.0199695    2.6933109    0.2751700 
C     0.5079282    2.5209664   -2.3538171 
H    -2.4980209    0.6008159    1.1996256 
H    -0.8580444   -1.0896318   -2.6615074 
C    -0.1961259   -3.1737518   -0.7722167 
C    -0.8616854   -2.6234467    2.1651653 
H    -1.1828263    1.9986717    1.1195861 
H     1.3897878    2.9092035   -1.8141198 
H     0.3139677   -2.5563724   -1.5359487 
H     0.1753828   -2.9280395    2.3890604 
C     0.8760531   -4.0708000   -0.1248262 
H     1.3727028   -4.6668092   -0.9102524 
H     1.6494826   -3.4851680    0.3930724 
H     0.4389365   -4.7738916    0.6028332 
C    -1.2628758   -4.0132320   -1.4918958 
H    -0.7556233   -4.7217675   -2.1711289 
H    -1.8703284   -4.6057226   -0.7875780 
H    -1.9312131   -3.3857667   -2.1007529 
C    -1.7908616   -3.8474959    2.2321394 
H    -1.7963509   -4.2457596    3.2627350 
H    -2.8284330   -3.5746126    1.9715018 
H    -1.4691769   -4.6625158    1.5635182 
C    -1.2840203   -1.5454066    3.1820308 
H    -1.1032608   -1.9132234    4.2063364 
H    -0.7074026   -0.6135409    3.0522818 
H    -2.3578834   -1.3091848    3.0854452 
C     0.1512116    3.6052647    0.6843319 
H    -0.1092673    4.1443815    1.6120768 
H     1.0624788    3.0161757    0.8763201 
H     0.3882415    4.3575718   -0.0863526 
C    -2.3259983    3.4697886    0.0501548 
H    -2.5059091    4.1253568    0.9212354 
H    -2.2883746    4.1101939   -0.8459680 
H    -3.1863140    2.7882737   -0.0376155 
C     0.9895940    1.5734814   -3.4672858 
H     1.7001451    2.1034156   -4.1248329 
H     1.5007207    0.6849217   -3.0560421 
H     0.1442619    1.2269725   -4.0869499 
C    -0.2960675    3.6981983   -2.9304223 
H     0.3052542    4.2051913   -3.7063806 
H    -1.2318893    3.3529995   -3.4041489 
H    -0.5470992    4.4500186   -2.1649622 
