98
Energy =
C    -1.4382922   -1.5650363   -2.1581668 
C    -0.9020385   -0.4356303   -2.8224863 
C     0.4955296   -0.2220974   -2.9032978 
H    -1.5852080    0.3321530   -3.2045529 
Pd   -0.2023480   -0.2360167   -0.7253735 
P     1.5422107    1.1465555    0.0655137 
P    -1.1433070   -1.0582520    1.2960097 
H    -0.7744042   -2.4335726   -2.0328178 
H     1.1372174   -1.1047930   -2.7688433 
C    -5.6328207   -2.5418381   -2.0557489 
C    -4.6604323   -3.5390496   -1.8887993 
C    -3.3003953   -3.2057316   -1.9208532 
C    -2.8808440   -1.8673953   -2.1077727 
C    -3.8752162   -0.8770942   -2.2873850 
C    -5.2327573   -1.2108584   -2.2631049 
H    -6.6964475   -2.7996011   -2.0334823 
H    -4.9607931   -4.5818751   -1.7445384 
H    -2.5474909   -3.9959055   -1.8198637 
H    -3.5860475    0.1689488   -2.4289324 
H    -5.9856004   -0.4278409   -2.4006149 
C     2.4357489    3.0336546   -4.9419358 
C     3.1410071    1.8623520   -4.6273876 
C     2.4919106    0.8062881   -3.9757442 
C     1.1276964    0.9004098   -3.6156177 
C     0.4261004    2.0800246   -3.9583757 
C     1.0728656    3.1327040   -4.6131033 
H     2.9405089    3.8614982   -5.4499849 
H     4.1983172    1.7683275   -4.8955111 
H     3.0458132   -0.1104373   -3.7459357 
H    -0.6299461    2.1854899   -3.6915444 
H     0.5135891    4.0397144   -4.8644776 
Fe    0.9771923    0.5631478    3.3261304 
C    -0.0411144   -1.0674670    2.7539477 
C    -0.3565898   -0.7209219    4.1293265 
H    -1.3361030   -0.4531522    4.5258167 
C     0.8560916   -0.7540520    4.8925128 
H     0.9458110   -0.5133318    5.9532289 
C     1.9285896   -1.1180491    4.0157189 
H     2.9814499   -1.2052027    4.2890778 
C     1.3852731   -1.3148435    2.7052269 
C     1.3708590    1.7547671    1.7715632 
C     2.3885579    1.9123980    2.7933969 
H     3.4565696    1.7182357    2.6841440 
C     1.7448146    2.3429654    3.9999313 
H     2.2396776    2.5172748    4.9569615 
C     0.3408144    2.4702245    3.7411350 
H    -0.4214999    2.7583727    4.4670562 
C     0.1059306    2.1182478    2.3729887 
H     1.9519363   -1.5857237    1.8149471 
H    -0.8590131    2.1008025    1.8656759 
C     2.0926755    2.7177677   -0.8249603 
C     3.5968380    2.7852181   -0.4839739 
C     4.1872148    1.3759464   -0.6401128 
C     3.2540847    0.3428530    0.0491646 
H     1.9777422    2.5130540   -1.9032492 
H     4.1056488    3.5120572   -1.1425154 
H     3.7226753    3.1485966    0.5537403 
H     4.2492711    1.1316172   -1.7163970 
H     5.2110478    1.3152088   -0.2326043 
H     3.5180210    0.2458484    1.1177715 
C    -1.8339207   -2.8241957    1.1904677 
C    -3.2409173   -2.7690786    1.8501598 
C    -3.3501133   -1.5311099    2.7573249 
C    -2.7248873   -0.3238907    2.0158909 
H    -1.9641966   -3.0101738    0.1144146 
H    -4.0018736   -2.7173367    1.0515499 
H    -3.4379294   -3.6939228    2.4195381 
H    -4.4005130   -1.3150617    3.0241883 
H    -2.8116812   -1.7193274    3.7017393 
H    -2.4193947    0.4695766    2.7212935 
C    -3.6778572    0.2728104    0.9619473 
H    -3.9281274   -0.4959863    0.2108261 
H    -4.6255686    0.5075062    1.4828354 
C    -3.1648185    1.5297394    0.2563625 
H    -3.9020550    1.8999603   -0.4762148 
H    -2.9689226    2.3481144    0.9724368 
H    -2.2213387    1.3218939   -0.2889329 
C    -0.8735722   -3.8990523    1.7326001 
H    -0.5481122   -3.6436277    2.7582021 
H    -1.4415518   -4.8450505    1.8153526 
C     0.3392477   -4.1217401    0.8195301 
H     0.0220536   -4.5104120   -0.1653898 
H     0.8863919   -3.1793863    0.6357903 
H     1.0488717   -4.8438369    1.2569749 
C     1.3056454    3.9829946   -0.4503888 
H     1.8003758    4.8387723   -0.9481218 
H     1.4061507    4.1615968    0.6368739 
C    -0.1750251    3.9506534   -0.8438363 
H    -0.6867089    3.0747764   -0.4067100 
H    -0.6989637    4.8562085   -0.4939732 
H    -0.2928531    3.8898557   -1.9384163 
C     3.3006244   -1.0617774   -0.5820495 
H     3.1124063   -0.9732182   -1.6668353 
H     2.4724833   -1.6785999   -0.1841615 
C     4.6376587   -1.7764173   -0.3453385 
H     4.6332032   -2.7823478   -0.7987643 
H     5.4801603   -1.2137251   -0.7837647 
H     4.8370366   -1.8921385    0.7356774 
