106
Energy =
C    -1.6944851   -1.6564200   -1.7340127 
C    -0.5933834   -1.8392514   -2.6079479 
C     0.5336234   -2.6148384   -2.2071145 
H    -0.5367368   -1.2514701   -3.5320373 
Pd    0.2329571   -0.8905203   -0.8087137 
P     2.4020526   -0.7561458   -0.0344508 
P    -0.6300058    0.9339085    0.3575742 
H    -1.8286005   -2.4148966   -0.9471897 
H     0.3454886   -3.4275292   -1.4905360 
C    -5.2734277    0.5984778   -2.4990990 
C    -4.1875709    0.7014369   -3.3841802 
C    -3.0069006   -0.0054603   -3.1403931 
C    -2.8908999   -0.8451344   -2.0085425 
C    -3.9849833   -0.9234777   -1.1159373 
C    -5.1636482   -0.2083599   -1.3571583 
H    -6.1977742    1.1503069   -2.6975059 
H    -4.2617391    1.3404451   -4.2696522 
H    -2.1721424    0.0949716   -3.8404109 
H    -3.9081709   -1.5596066   -0.2277198 
H    -6.0019138   -0.2903241   -0.6575366 
C     4.1129593   -3.1198639   -4.5367188 
C     3.7630610   -4.0561771   -3.5534636 
C     2.6032500   -3.8735072   -2.7909959 
C     1.7686210   -2.7528823   -2.9987443 
C     2.1540019   -1.7973144   -3.9691838 
C     3.3071384   -1.9855586   -4.7357003 
H     5.0138538   -3.2665576   -5.1417067 
H     4.3908665   -4.9371266   -3.3844522 
H     2.3305743   -4.6121056   -2.0296791 
H     1.5517719   -0.8951169   -4.1193538 
H     3.5861755   -1.2399315   -5.4867755 
Fe    2.1579216    0.1683794    3.2332997 
C     2.7127978    0.4133105    1.3113768 
C     1.8600391    1.5198462    1.7353241 
C     2.5242446    2.1348404    2.8603551 
C     3.7483537    1.4401095    3.1218284 
C     3.8731251    0.3778222    2.1744307 
C     2.1994994   -1.7418637    3.9391516 
C     2.5004849   -0.8081928    4.9872562 
C     1.3840832    0.0844171    5.1234411 
C     0.3890022   -0.2969229    4.1642874 
C     0.8939198   -1.4237611    3.4304149 
C     0.6887095    2.1346145    0.9982496 
H     2.1519509    2.9843823    3.4332659 
H     4.4467061    1.6606343    3.9311490 
H     4.6809429   -0.3519061    2.1144564 
H     2.8512914   -2.5404628    3.5805242 
H     3.4287924   -0.7648480    5.5599824 
H     1.3150670    0.9218161    5.8202500 
H    -0.5744420    0.1898724    4.0148191 
H     0.3848197   -1.9425386    2.6184782 
H     1.0866626    2.4862465    0.0239990 
C     0.1021598    3.3582457    1.7200903 
H     0.8673979    4.1493239    1.7940401 
H    -0.7536106    3.7732148    1.1619265 
H    -0.2226206    3.0989725    2.7408371 
C     3.6056984   -0.2829885   -1.3094888 
C     3.7741027    0.9050275   -1.9954457 
C     4.8964691    0.7146257   -2.8616763 
C     5.3247593   -0.5741115   -2.6516769 
H     3.1752813    1.8089399   -1.8762938 
H     5.3316717    1.4394599   -3.5497563 
H     6.1269347   -1.1800437   -3.0687849 
O     4.5506481   -1.1887586   -1.7153619 
C     3.0002872   -2.3522101    0.5645885 
C     2.3286195   -3.5287697    0.8280474 
C     3.2924649   -4.4422257    1.3619655 
C     4.4852222   -3.7604259    1.3886811 
H     1.2659522   -3.7075265    0.6672607 
H     3.1254414   -5.4710754    1.6808017 
H     5.4965646   -4.0250044    1.6949582 
O     4.3233603   -2.4947601    0.9138925 
C    -2.6299905    3.7260318   -2.7487988 
C    -3.3823085    3.3684250   -1.6173906 
C    -2.8032520    2.5043485   -0.6662008 
C    -1.4956405    2.0264616   -0.8405832 
C    -0.7725923    2.3779100   -2.0020656 
C    -1.3279229    3.2325518   -2.9671152 
H    -3.0774125    4.3930286   -3.4959228 
H    -3.3937702    2.1938387    0.2003573 
H     0.2323148    1.9652586   -2.1657619 
C    -3.5745400   -0.3715326    3.6828958 
C    -3.3874086    1.0126733    3.4859591 
C    -2.5023135    1.4355709    2.4788470 
C    -1.8188505    0.4941539    1.6775984 
C    -2.0459496   -0.8775023    1.8887257 
C    -2.9166131   -1.3319569    2.8963490 
H    -4.2554233   -0.7076881    4.4741782 
H    -2.3599397    2.5071714    2.3225023 
H    -1.5149682   -1.6042135    1.2622727 
C    -4.7796902    3.9071171   -1.4090604 
H    -4.7480251    4.8853934   -0.8931789 
H    -5.3002885    4.0587476   -2.3694321 
H    -5.3837911    3.2224070   -0.7909386 
C    -0.5662254    3.5965911   -4.2223147 
H     0.4578990    3.1881604   -4.2083499 
H    -1.0773323    3.2040461   -5.1206989 
H    -0.4973859    4.6922950   -4.3427758 
C    -4.1394853    2.0159789    4.3319728 
H    -3.7489461    3.0373883    4.1939354 
H    -5.2125029    2.0246510    4.0650307 
H    -4.0740813    1.7617435    5.4041427 
C    -3.0907467   -2.8132729    3.1442287 
H    -4.0030517   -3.0249276    3.7248603 
H    -3.1446575   -3.3765614    2.1960878 
H    -2.2298964   -3.2099635    3.7150376 
