142
Energy =
C    -0.0839530    3.2489118    0.9398154 
C    -0.4780512    2.6656352    2.1660547 
C     0.4438231    1.9287719    2.9695703 
H    -1.5406489    2.6524534    2.4416744 
Pd    0.2397285    0.9447261    0.9910059 
P     1.0549539   -1.1603448    1.6083213 
P    -0.0814230    0.5149984   -1.3106245 
H     0.9950729    3.3783655    0.7684057 
H     1.5019019    2.2303043    2.9301210 
C    -2.5658915    5.4799409   -1.7729261 
C    -1.2364022    5.1760969   -2.1013586 
C    -0.4332722    4.4691747   -1.2008648 
C    -0.9505501    4.0259814    0.0391513 
C    -2.2851718    4.3630994    0.3675959 
C    -3.0805330    5.0841018   -0.5273419 
H    -3.1954821    6.0355355   -2.4753679 
H    -0.8188495    5.4939109   -3.0624812 
H     0.6043072    4.2430692   -1.4621662 
H    -2.7053738    4.0702918    1.3353012 
H    -4.1086966    5.3404273   -0.2531596 
C    -0.7216690   -0.1130733    6.5778779 
C    -1.5396863   -0.1847403    5.4374995 
C    -1.1703662    0.4830881    4.2646214 
C     0.0303222    1.2281138    4.2056087 
C     0.8439416    1.2912620    5.3560878 
C     0.4651969    0.6323631    6.5336991 
H    -1.0002595   -0.6475280    7.4911111 
H    -2.4664686   -0.7683690    5.4641193 
H    -1.7987920    0.4076197    3.3689293 
H     1.7821478    1.8548958    5.3235775 
H     1.1104184    0.6835712    7.4159360 
Fe   -3.0316323   -3.3325427    0.3770646 
C    -1.5358770   -2.0798616    1.0114058 
C    -1.6119396   -2.0899810   -0.4405955 
C    -2.9539088   -1.6999910   -0.8005190 
H    -3.3285280   -1.6184436   -1.8209922 
C    -3.6885687   -1.4180544    0.3953987 
H    -4.7356590   -1.1145476    0.4476012 
C    -2.8208242   -1.6546363    1.5098711 
H    -3.0887423   -1.5714773    2.5654506 
C    -2.5935437   -5.3458910    0.3610381 
H    -1.6137169   -5.8245765    0.3253595 
C    -3.4006118   -4.9896857   -0.7719497 
H    -3.1331874   -5.1180656   -1.8225063 
C    -4.6234816   -4.4231216   -0.2827836 
H    -5.4380467   -4.0312197   -0.8947686 
C    -4.5715640   -4.4248013    1.1516857 
H    -5.3419107   -4.0385523    1.8218215 
C    -3.3168464   -4.9940340    1.5497003 
H    -2.9837703   -5.1408270    2.5787540 
C    -0.4906967   -2.2996117   -1.4024995 
C     0.2778033   -1.2016880   -1.8933833 
C     1.3353895   -1.4338212   -2.7944712 
H     1.9408412   -0.5914866   -3.1453383 
C     1.6296098   -2.7325527   -3.2332032 
H     2.4613959   -2.8992598   -3.9244475 
C     0.8666854   -3.8133612   -2.7729624 
H     1.0961887   -4.8303353   -3.1042635 
C    -0.1776201   -3.5909273   -1.8656579 
H    -0.7772534   -4.4254684   -1.4944421 
C     1.0155136    1.6416453   -2.2688793 
C     0.6908832    2.0944695   -3.5609064 
H    -0.2034130    1.7228153   -4.0676836 
C     1.4770196    3.0537214   -4.2219414 
C     2.6114007    3.5672997   -3.5508118 
C     2.9820459    3.1154144   -2.2621300 
C     2.1675200    2.1573402   -1.6416634 
H     2.4173593    1.8376762   -0.6239793 
C    -1.7746254    0.8128075   -1.9427786 
C    -2.7362512    1.3999056   -1.1048613 
H    -2.4616562    1.6784642   -0.0831370 
C    -4.0594030    1.5761498   -1.5350502 
C    -4.4004125    1.1552752   -2.8407006 
C    -3.4502859    0.5744554   -3.7149377 
C    -2.1414098    0.3955998   -3.2374420 
H    -1.4099740   -0.1053007   -3.8822722 
C     2.3697844   -1.8015221    0.4677935 
C     3.2716651   -0.8421551   -0.0257424 
H     3.1319973    0.2145250    0.2157503 
C     4.3523133   -1.2171282   -0.8352605 
C     4.5404406   -2.5569874   -1.1892454 
H     5.3749608   -2.8481421   -1.8327861 
C     3.6302851   -3.5130692   -0.7181596 
C     2.5643038   -3.1490154    0.1139240 
H     1.8897127   -3.9289219    0.4557286 
C     1.9964244   -1.1758165    3.2070991 
C     1.6104469   -1.9206495    4.3356800 
H     0.7216382   -2.5533233    4.3301771 
C     2.3536217   -1.8439836    5.5220260 
C     3.4788772   -1.0148018    5.6138288 
H     4.0445161   -0.9414611    6.5462447 
C     3.8472638   -0.2520236    4.4988402 
C     3.1212289   -0.3367156    3.3044746 
H     3.4415235    0.2739867    2.4553618 
C    -0.3481510   -2.3764607    1.9048759 
H    -0.6516357   -2.0276383    2.9100073 
C     0.0298959   -3.8673326    2.0059655 
H    -0.7604493   -4.3917261    2.5639222 
H     0.0797617   -4.3205042    1.0056119 
H     0.9879047   -4.0297810    2.5280979 
C     1.9422489   -2.6652227    6.7265213 
F     2.0249210   -1.9379365    7.8670666 
F     0.6667785   -3.1121250    6.6182392 
F     2.7388872   -3.7456240    6.8813965 
C     4.9590446    0.7687697    4.5979622 
F     5.6592991    0.8586474    3.4439758 
F     4.4370031    2.0070772    4.8374229 
F     5.8200080    0.4943451    5.5955990 
C     5.2673287   -0.1479616   -1.3873218 
F     5.4266245    0.8680118   -0.5008711 
F     4.7518649    0.3964696   -2.5229569 
F     6.4869437   -0.6309057   -1.6918643 
C     3.8076632   -4.9570103   -1.1387830 
F     4.9279216   -5.4950029   -0.6127745 
F     2.7600408   -5.7274367   -0.7577769 
F     3.9120806   -5.0553220   -2.4894642 
C     1.1234831    3.5212845   -5.6145322 
H     0.4533422    4.4013364   -5.5848956 
H     2.0311016    3.8099570   -6.1690986 
H     0.5984034    2.7299200   -6.1739615 
C     4.2251664    3.6602255   -1.6034721 
H     5.1228730    3.3408163   -2.1606385 
H     4.2267873    4.7632752   -1.5958698 
H     4.3187683    3.2980020   -0.5680813 
C    -5.1179077    2.1776347   -0.6430160 
H    -5.9348538    1.4588960   -0.4506886 
H    -4.6925804    2.4814493    0.3261992 
H    -5.5778290    3.0588189   -1.1221876 
C    -3.8366947    0.1650929   -5.1175742 
H    -4.2204180   -0.8721570   -5.1462855 
H    -4.6298505    0.8239272   -5.5073402 
H    -2.9683852    0.2109788   -5.7951501 
O     3.4277583    4.4864359   -4.1662021 
O    -5.6913583    1.3763171   -3.2687996 
C     2.9781861    5.8491963   -4.1382796 
H     3.7651109    6.4441058   -4.6246789 
H     2.0282090    5.9784571   -4.6898520 
H     2.8397258    6.1990016   -3.0972018 
C    -6.5727821    0.2466481   -3.2217464 
H    -6.6405120   -0.1628910   -2.1950747 
H    -7.5618591    0.6113501   -3.5362699 
H    -6.2454419   -0.5577762   -3.9068747 
