86
Energy =
C    -1.1002108    2.7499305   -1.0066584 
C     0.2080965    2.4939720   -1.4529874 
C     0.4799446    1.4889989   -2.4475464 
H     1.0439914    3.0172716   -0.9716749 
Pd   -0.2463249    0.5194741   -0.5871222 
P    -0.4833930   -1.7660180   -1.5030505 
P    -0.1684161    0.3839721    1.8162742 
H    -1.9218607    2.2674456   -1.5580175 
H    -0.2851318    1.3382610   -3.2170838 
C    -2.4188207    5.6046180    1.9167219 
C    -1.0795333    5.6204599    1.4894201 
C    -0.6321427    4.7056739    0.5318995 
C    -1.5164083    3.7431200   -0.0180046 
C    -2.8689709    3.7578445    0.4065137 
C    -3.3140360    4.6739621    1.3651838 
H    -2.7651606    6.3254757    2.6641687 
H    -0.3838770    6.3601932    1.8987057 
H     0.4085183    4.7504661    0.1948279 
H    -3.5712393    3.0370953   -0.0271652 
H    -4.3627039    4.6674753    1.6795891 
C     4.4168286    0.0397842   -3.4355207 
C     4.2159900    0.7683728   -2.2513156 
C     2.9475150    1.2657643   -1.9337791 
C     1.8412275    1.0497341   -2.7946056 
C     2.0683630    0.3349450   -3.9955941 
C     3.3361947   -0.1680188   -4.3085382 
H     5.4087547   -0.3522766   -3.6812411 
H     5.0544039    0.9480375   -1.5699261 
H     2.8104881    1.8176764   -0.9974234 
H     1.2361364    0.1782567   -4.6902633 
H     3.4855790   -0.7187336   -5.2431650 
Fe    0.6139930   -1.6625691    0.5717943 
C     1.1769281   -0.7817791    2.2539873 
C     2.2901486   -0.7487787    1.3338909 
H     2.6372388    0.1580264    0.8248059 
C     3.1782576   -1.9669705    1.4623810 
H     4.2006075   -1.7877715    1.8361968 
C     2.2848859   -2.9906555    2.2279857 
H     2.7257103   -3.4809316    3.1132811 
C     0.9895956   -2.2132312    2.4559028 
C     0.8420336   -2.9080800   -0.9508523 
C     0.7720040   -3.6535140    0.2948209 
H    -0.0659778   -4.2971733    0.5818167 
C     2.1538101   -3.8626321    0.9130977 
H     2.5105367   -4.9055078    0.9687785 
C     3.0458684   -2.8415490    0.1470373 
H     3.9868637   -3.2018716   -0.3016014 
C     2.0752813   -2.1622922   -0.7872959 
H     0.1644644   -2.6484210    3.0358941 
H     2.4014240   -1.3756500   -1.4793175 
C    -0.6532412   -2.0568456   -3.3695637 
C    -1.2307129   -3.4901456   -3.3443500 
C    -2.3985801   -3.5559128   -2.3186006 
C    -2.1796368   -2.5048227   -1.1899618 
H     0.3601348   -2.0353228   -3.8036244 
H    -1.5646793   -3.7875906   -4.3544087 
H    -0.4345279   -4.1929931   -3.0447957 
H    -3.3661620   -3.3673561   -2.8143512 
H    -2.4576948   -4.5676659   -1.8830805 
H    -2.8203641   -1.6223499   -1.3813032 
C    -1.6576147   -0.0183706    2.8831241 
C    -1.4284184    0.8430054    4.1466597 
C    -0.9399481    2.2272517    3.6811219 
C     0.2365584    2.0370051    2.6877964 
H    -1.6377418   -1.0960412    3.1222984 
H    -2.3539885    0.9147066    4.7460192 
H    -0.6617393    0.3663144    4.7846419 
H    -1.7592620    2.7719549    3.1800971 
H    -0.6185918    2.8497371    4.5350130 
H     0.2074796    2.8206541    1.9153739 
C     1.6161931    2.0295746    3.3571786 
H     1.6925373    1.2444443    4.1289531 
H     2.4277694    1.8629768    2.6292602 
C    -2.9589506    0.3259959    2.1373491 
H    -3.0535745   -0.2521397    1.2029779 
H    -3.8312389    0.1017489    2.7760074 
C    -1.5758042   -1.0654226   -4.0888975 
H    -1.6782554   -1.3634345   -5.1472799 
H    -1.1834925   -0.0385654   -4.0691018 
C    -2.4696015   -2.9853467    0.2385473 
H    -2.0437905   -3.9836401    0.4241994 
H    -3.5579537   -3.0497213    0.4101523 
H    -2.0540407   -2.2903135    0.9925261 
H    -2.5903766   -1.0467586   -3.6540665 
H    -2.9986405    1.3953935    1.8693126 
H     1.7904752    3.0081140    3.8395506 
