124
Energy =
C     0.7679312   -2.2781811   -2.0532698 
C     0.9591611   -1.1246367   -2.8527475 
C     2.0040367   -0.2031403   -2.5480747 
H     0.2464433   -0.8874662   -3.6528379 
Pd    0.5130629   -0.3524022   -0.8479771 
P     1.2709623    1.4268057    0.5293255 
P    -1.2234307   -1.0277611    0.5720428 
H     1.6261009   -2.5837570   -1.4351092 
H     2.8861303   -0.6084492   -2.0316728 
C    -1.9190972   -5.5463202   -2.7703819 
C    -0.8493974   -5.6777463   -1.8729222 
C    -0.0090593   -4.5879771   -1.6233587 
C    -0.2102756   -3.3482739   -2.2765401 
C    -1.3105607   -3.2235565   -3.1559681 
C    -2.1495143   -4.3136175   -3.4027409 
H    -2.5870168   -6.3920835   -2.9600543 
H    -0.6734439   -6.6307847   -1.3639472 
H     0.8298331   -4.6942334   -0.9257810 
H    -1.5114644   -2.2686963   -3.6519776 
H    -2.9973757   -4.2021508   -4.0855458 
C     2.8090566    3.2980158   -4.9179453 
C     1.4814852    2.8936399   -4.7016953 
C     1.2081394    1.7591123   -3.9315339 
C     2.2540855    1.0162253   -3.3387616 
C     3.5837042    1.4419140   -3.5554240 
C     3.8584867    2.5600086   -4.3517100 
H     3.0230172    4.1808909   -5.5290284 
H     0.6550841    3.4638319   -5.1386782 
H     0.1694297    1.4515920   -3.7778338 
H     4.4084382    0.8743012   -3.1093071 
H     4.8965456    2.8597859   -4.5263563 
Fe   -2.5418930    2.0530693   -0.1606319 
C    -2.0688194    0.5018124    1.0873790 
C    -1.3816246    1.7164428    1.5043981 
C    -2.3944509    2.7047451    1.7688496 
C    -3.6824520    2.1300882    1.5248307 
C    -3.4905248    0.7772940    1.1001104 
C    -3.6452041    3.2441429   -1.3938454 
C    -2.2949697    3.7225005   -1.3151095 
C    -1.4247424    2.6760541   -1.7712021 
C    -2.2391480    1.5540673   -2.1349202 
C    -3.6122081    1.9025409   -1.9013863 
C     0.0649386    1.8859562    1.9127232 
H    -2.1982689    3.7260390    2.1027310 
H    -4.6426988    2.6408403    1.6153683 
H    -4.2787607    0.0745967    0.8252557 
H    -4.5402908    3.7966056   -1.1024992 
H    -1.9896195    4.7095856   -0.9663702 
H    -0.3400241    2.7286179   -1.8484264 
H    -1.8690987    0.5975410   -2.5112586 
H    -4.4821745    1.2639780   -2.0658002 
H     0.2215585    2.9630585    2.0925035 
C     0.3525909    1.1320247    3.2316637 
H    -0.4512181    1.3541064    3.9542064 
H     0.3828163    0.0428716    3.0811490 
H     1.3145150    1.4416131    3.6684467 
C     5.2478194   -0.1146736    2.4914927 
C     4.4891683   -0.9002868    1.6072492 
C     3.3116884   -0.3906376    1.0514834 
C     2.8440795    0.9046450    1.3468981 
C     3.6112978    1.7281872    2.2220408 
C     4.7865905    1.1863661    2.7728400 
H     4.8185531   -1.9134102    1.3507879 
H     2.7282371   -1.0063621    0.3569246 
H     5.3739819    1.8150120    3.4535833 
C     2.5596216    5.5147891   -1.2365403 
C     1.2784609    5.4079629   -0.6676052 
C     0.8826507    4.1653488   -0.1401907 
C     1.7356968    3.0489214   -0.2032871 
C     3.0069346    3.1795519   -0.7969565 
C     3.4414569    4.4183317   -1.2980054 
H     2.8887543    6.4847900   -1.6288430 
H    -0.1074774    4.0709763    0.3160579 
H     3.6868370    2.3220400   -0.8220527 
C     6.5116535   -0.6373755    3.1339559 
H     7.3396275    0.0857798    3.0306564 
H     6.3583483   -0.8016664    4.2167656 
H     6.8287715   -1.5937895    2.6876760 
C     3.2664238    3.1638514    2.5588545 
H     3.6774292    3.4401187    3.5436003 
H     3.6971389    3.8487267    1.8056794 
H     2.1839322    3.3573384    2.5710076 
C     0.3379251    6.5928966   -0.6377597 
H    -0.2405162    6.6544167   -1.5793213 
H    -0.3841939    6.5153449    0.1929039 
H     0.8866576    7.5433654   -0.5292393 
C     4.8405717    4.5939321   -1.8439434 
H     5.4316777    5.2596133   -1.1881932 
H     5.3703731    3.6310203   -1.9177035 
H     4.8216054    5.0554592   -2.8463398 
C     0.5754511   -3.3405335    4.2090215 
C     1.2690351   -3.1704986    3.0241969 
C     0.6595444   -2.4768116    1.9505615 
C    -0.6306019   -1.9598675    2.0487127 
H     1.0411707   -3.8571615    5.0554812 
H     2.2902239   -3.5482832    2.9139298 
H     1.2177821   -2.3213918    1.0226610 
C    -1.3953973   -2.1688606    3.2525918 
C    -0.7597858   -2.8595769    4.3526251 
C    -1.4865505   -3.0601454    5.5633169 
C    -2.7926432   -2.6192438    5.6915952 
C    -3.4265160   -1.9643023    4.6044226 
C    -2.7454437   -1.7453120    3.4171171 
H    -0.9916910   -3.5789267    6.3916834 
H    -3.3407766   -2.7820460    6.6250964 
H    -4.4652256   -1.6320108    4.7018446 
H    -3.2555104   -1.2509621    2.5895673 
C    -2.6503100   -3.4275151    0.2836683 
C    -2.5517952   -2.0943030   -0.1046161 
C    -3.4590024   -1.5822276   -1.0820774 
C    -4.4511816   -2.3832824   -1.6140004 
H    -1.9572844   -3.8443608    1.0209989 
H    -3.3725373   -0.5385718   -1.3809338 
H    -5.1458460   -1.9738687   -2.3561137 
C    -4.5782800   -3.7499099   -1.2285427 
C    -3.6563626   -4.2774277   -0.2549523 
C    -3.7648436   -5.6452695    0.1322480 
C    -4.7341199   -6.4620537   -0.4266950 
C    -5.6370324   -5.9443409   -1.3950321 
C    -5.5630967   -4.6158700   -1.7849593 
H    -3.0632585   -6.0413147    0.8744752 
H    -4.8090609   -7.5117724   -0.1244682 
H    -6.3973719   -6.6012164   -1.8302304 
H    -6.2621848   -4.2164275   -2.5280230 
