98
Energy =
C    -1.1128318   -1.7576581   -2.2047493 
C    -0.6729314   -0.5817128   -2.8620288 
C     0.7044152   -0.2687798   -2.9768050 
H    -1.4183756    0.1457408   -3.2048167 
Pd    0.0458553   -0.3823221   -0.7803446 
P     1.7240265    1.0686212    0.0540266 
P    -1.0313589   -1.0790882    1.2104434 
H    -0.3922977   -2.5843950   -2.1187834 
H     1.4105766   -1.1075804   -2.8968368 
C    -5.2241262   -3.0045369   -1.8769951 
C    -4.9227068   -1.6443881   -2.0610713 
C    -3.5932966   -1.2248512   -2.1743542 
C    -2.5296268   -2.1538935   -2.0988569 
C    -2.8518004   -3.5215436   -1.9333455 
C    -4.1829748   -3.9429292   -1.8233826 
H    -6.2653905   -3.3299468   -1.7867091 
H    -5.7299519   -0.9067367   -2.1165715 
H    -3.3810054   -0.1606216   -2.3178286 
H    -2.0450462   -4.2618062   -1.8992389 
H    -4.4071570   -5.0073037   -1.6995119 
C     2.3140725    3.2089053   -4.9448372 
C     0.9615304    3.1855986   -4.5645354 
C     0.4245747    2.0598504   -3.9323679 
C     1.2264465    0.9258099   -3.6643879 
C     2.5776336    0.9541568   -4.0814500 
C     3.1181164    2.0840063   -4.7078992 
H     2.7333312    4.0938322   -5.4340205 
H     0.3235108    4.0541471   -4.7578752 
H    -0.6255471    2.0714541   -3.6253003 
H     3.2092138    0.0738935   -3.9211445 
H     4.1676355    2.0823436   -5.0196778 
Fe    1.0781963    0.4525166    3.3533769 
C    -0.0265738   -1.0911665    2.7284813 
C    -0.4096407   -0.7156283    4.0762689 
H    -1.3942514   -0.3760368    4.4011955 
C     0.7444070   -0.8340096    4.9184699 
H     0.7825862   -0.5900221    5.9815860 
C     1.8413079   -1.2907584    4.1178044 
H     2.8631547   -1.4559346    4.4635509 
C     1.3740594   -1.4564758    2.7738393 
C     1.5914611    1.6009747    1.7949374 
C     2.6172130    1.6565528    2.8190915 
H     3.6613542    1.3605509    2.7089436 
C     2.0204487    2.1463828    4.0271529 
H     2.5312661    2.2693435    4.9837689 
C     0.6360734    2.4101010    3.7698824 
H    -0.0950242    2.7706404    4.4954685 
C     0.3666686    2.0827665    2.4012462 
H     1.9722900   -1.7725302    1.9207069 
H    -0.5978627    2.1681762    1.9001813 
C     2.1043212    2.7294390   -0.7676004 
C     3.5756746    2.9595718   -0.3670737 
C     4.3377150    1.6475051   -0.5921261 
C     3.5106443    0.4347369   -0.0693720 
H     2.0466145    2.5428962   -1.8552434 
H     4.0100016    3.7833662   -0.9616746 
H     3.6224871    3.2679432    0.6944076 
H     4.4910343    1.5123034   -1.6786901 
H     5.3371678    1.6626285   -0.1237950 
H     3.7910611    0.1850123    0.9691505 
C    -1.9053256   -2.7464055    1.3264208 
C    -3.0828325   -2.4525500    2.2773584 
C    -3.7003876   -1.1178355    1.8405558 
C    -2.5683287   -0.0714782    1.6646597 
H    -2.3153739   -2.9281978    0.3175223 
H    -3.8197546   -3.2751222    2.2410600 
H    -2.7154800   -2.3923501    3.3199327 
H    -4.2102553   -1.2571009    0.8685618 
H    -4.4563611   -0.7582195    2.5596161 
H    -2.3286343    0.3901748    2.6397104 
C    -2.8971078    1.0480866    0.6625995 
H    -2.0117678    1.6952698    0.5336022 
H    -3.0839303    0.5952618   -0.3268816 
C    -4.0986875    1.9039572    1.0834015 
H    -4.2693971    2.7205847    0.3608983 
H    -5.0247130    1.3056255    1.1383730 
H    -3.9332827    2.3603636    2.0764698 
C    -1.0236070   -3.9322916    1.7421919 
H    -0.5743466   -3.7250379    2.7316399 
H    -1.6898817   -4.8046376    1.8850567 
C     0.0722687   -4.2882098    0.7322378 
H     0.6836321   -5.1344890    1.0878870 
H    -0.3585624   -4.5706548   -0.2443668 
H     0.7494475   -3.4340612    0.5597781 
C     1.1725117    3.8894720   -0.3845937 
H     1.5974573    4.8110011   -0.8260493 
H     1.2120973    4.0341156    0.7108833 
C    -0.2795708    3.7300064   -0.8472278 
H    -0.3553317    3.7954072   -1.9442758 
H    -0.6889612    2.7469593   -0.5494196 
H    -0.9246307    4.5129926   -0.4136663 
C     3.7451403   -0.8087644   -0.9480294 
H     4.8414363   -0.9462761   -1.0170334 
H     3.4115283   -0.5794266   -1.9742194 
C     3.1023524   -2.1115124   -0.4759626 
H     3.3098542   -2.9351104   -1.1803441 
H     3.4795809   -2.4176850    0.5159097 
H     2.0008358   -2.0009734   -0.4069369 
