124
Energy =
C     1.3023908    2.3187245    1.3247830 
C     2.2061252    1.9718611    0.2962729 
C     1.8122637    2.0178548   -1.0686019 
H     3.1958334    1.5820159    0.5622591 
Pd    0.5336782    0.5062449    0.0840379 
P    -0.8765839   -0.2701789   -1.6689598 
P    -0.3786825   -0.8515412    1.7533796 
H     0.3706934    2.8201285    1.0165081 
H     1.0023491    2.7107788   -1.3217370 
C     2.2139658    2.9618078    5.4646236 
C     0.9320298    3.2281140    4.9613550 
C     0.6423378    2.9776212    3.6170160 
C     1.6250689    2.4490762    2.7466424 
C     2.9053848    2.1582042    3.2778169 
C     3.1974737    2.4233992    4.6179829 
H     2.4472858    3.1700651    6.5137730 
H     0.1581928    3.6390300    5.6173251 
H    -0.3526014    3.2070103    3.2225205 
H     3.6881371    1.7466345    2.6329069 
H     4.1984290    2.2119511    5.0075145 
C     4.3821084    1.1623291   -4.4104503 
C     3.1805900    1.8638957   -4.5882772 
C     2.3500546    2.1231724   -3.4921251 
C     2.6913722    1.6710222   -2.1952973 
C     3.8913973    0.9354614   -2.0376265 
C     4.7331458    0.7010235   -3.1293382 
H     5.0416722    0.9713325   -5.2631473 
H     2.8911349    2.2227078   -5.5814575 
H     1.4291358    2.6970499   -3.6323129 
H     4.1724738    0.5450025   -1.0537865 
H     5.6671335    0.1479750   -2.9835836 
Fe   -2.1031924    1.6827540   -0.2006691 
C    -2.5429595   -0.0819410   -0.9850582 
C    -2.8089763   -0.1458484    0.4463111 
C    -4.2356021    0.3066889    0.7452675 
C    -4.6991678    1.0102060   -0.5578081 
C    -3.4907498    0.9020193   -1.4625868 
C    -4.6618168    2.4066186    0.1840285 
C    -4.1809279    1.6976245    1.4920296 
C    -2.7416233    2.1934162    1.6438697 
C    -2.4971177    3.3514084    0.8291784 
C    -3.4420966    3.2051699   -0.2464371 
C    -2.2060246   -1.1642198    1.4054554 
H    -4.9030945   -0.4624544    1.1740397 
H    -5.6669718    0.7047732   -0.9918725 
H    -3.5253760    1.2481420   -2.5013432 
H    -5.6139024    2.9650061    0.2303671 
H    -4.8210502    1.8053211    2.3867923 
H    -2.1404035    1.9473272    2.5267764 
H    -1.7804789    4.1624250    0.9971884 
H    -3.4793729    3.8702182   -1.1185662 
H    -2.7096944   -1.0401641    2.3782874 
C    -2.4952188   -2.5950998    0.8940030 
H    -3.5396763   -2.6463350    0.5399453 
H    -1.8344605   -2.8624128    0.0537199 
H    -2.3601918   -3.3479367    1.6849636 
C     1.3768770   -5.1606932    2.3983456 
C     0.3341354   -4.6270522    3.1871547 
C    -0.1305506   -3.3357268    2.9571803 
C     0.4069050   -2.5225916    1.9258807 
C     1.4778839   -3.0233194    1.1488842 
C     1.9269417   -4.3397992    1.4058190 
H    -0.1094409   -5.2274026    3.9892873 
H    -0.9238838   -2.9355539    3.5987701 
H     2.7545052   -4.7274911    0.7991646 
C    -0.0534597    0.2857883    6.2389931 
C    -1.2914996    0.4891472    5.6070916 
C    -1.4064936    0.1741004    4.2391088 
C    -0.3035520   -0.3104504    3.5123909 
C     0.9361818   -0.4665569    4.1676946 
C     1.0693802   -0.1966644    5.5382889 
H     0.0417124    0.5064912    7.3090881 
H    -2.3844298    0.2910371    3.7630354 
H     1.7990997   -0.8517953    3.6127471 
C     1.8860523   -6.5624711    2.6383286 
H     2.6921509   -6.8294445    1.9361496 
H     2.2759923   -6.6680683    3.6670705 
H     1.0712319   -7.3002993    2.5249728 
C     2.2178064   -2.2534397    0.0808749 
H     1.8464427   -1.2115472   -0.0254006 
H     3.2953178   -2.2001529    0.3170340 
H     2.1161103   -2.7368673   -0.9042941 
C    -2.4680524    1.0581005    6.3684629 
H    -2.5081118    0.6706711    7.4005415 
H    -2.3886435    2.1602145    6.4351111 
H    -3.4252506    0.8250854    5.8726026 
C     2.3723583   -0.4643733    6.2562140 
H     2.5762155    0.3038030    7.0211107 
H     2.3335432   -1.4420936    6.7724546 
H     3.2216423   -0.4887655    5.5541799 
C    -0.8661177   -4.4333664   -3.7925222 
C    -2.0101056   -3.9172663   -3.2090504 
C    -1.9768694   -2.6423445   -2.5912587 
C    -0.8054566   -1.8877294   -2.5556915 
H    -0.8815461   -5.4218472   -4.2644725 
H    -2.9446523   -4.4872163   -3.2189312 
H    -2.8866910   -2.2420932   -2.1309709 
C     0.3879616   -2.3821097   -3.1851540 
C     0.3482269   -3.6866021   -3.8059690 
C     1.5241537   -4.1937564   -4.4332938 
C     2.6890143   -3.4460652   -4.4678826 
C     2.7231199   -2.1573022   -3.8750176 
C     1.6012962   -1.6377866   -3.2476361 
H     1.4857446   -5.1855569   -4.8970668 
H     3.5841520   -3.8428593   -4.9577721 
H     3.6392868   -1.5627650   -3.9121122 
H     1.6477014   -0.6412927   -2.7954580 
C    -0.7780618    0.7995062   -4.3268052 
C    -0.8949576    1.0228570   -2.9650541 
C    -1.1253681    2.3498455   -2.4788751 
C    -1.2592946    3.4145688   -3.3490727 
H    -0.6157036   -0.2133594   -4.7101243 
H    -1.0265609    2.5870327   -1.3816261 
H    -1.4377416    4.4252513   -2.9661842 
C    -1.1281714    3.2153427   -4.7585630 
C    -0.8676450    1.8839429   -5.2527937 
C    -0.7082694    1.6871854   -6.6544524 
C    -0.8020448    2.7560407   -7.5330596 
C    -1.0613948    4.0650309   -7.0467940 
C    -1.2212423    4.2905341   -5.6878532 
H    -0.5104081    0.6763333   -7.0271192 
H    -0.6781915    2.5936020   -8.6086779 
H    -1.1347189    4.8992062   -7.7520566 
H    -1.4184048    5.3007394   -5.3128653 
