132
Energy =
C     2.3898397   -1.9402542    0.3223977 
C     2.0716798   -2.2120225    1.6885501 
C     0.9505194   -3.0066988    2.0111564 
H     2.6289870   -1.7051935    2.4860898 
Pd    0.3710789   -1.1196217    0.8024683 
P    -1.7104261   -0.3791720    1.6425228 
P     0.3367088    0.1770272   -1.1412339 
H     2.1192235   -2.7162354   -0.4055481 
H     0.5280949   -3.6128195    1.1941905 
C     5.6468419    0.5589131   -0.9645745 
C     5.1496396   -0.4537784   -1.7976342 
C     4.0742875   -1.2464891   -1.3767765 
C     3.4841447   -1.0497605   -0.1079334 
C     3.9724535   -0.0001129    0.7053286 
C     5.0439801    0.7919677    0.2826646 
H     6.4888633    1.1776026   -1.2906990 
H     5.6046195   -0.6316494   -2.7778650 
H     3.6884847   -2.0371827   -2.0297192 
H     3.4965917    0.2101900    1.6691824 
H     5.4056359    1.6037334    0.9218820 
C    -0.3399316   -4.3596969    5.8809736 
C     0.7288609   -3.4522424    5.7876521 
C     1.1634281   -2.9952758    4.5390901 
C     0.5383488   -3.4427568    3.3516985 
C    -0.5237768   -4.3720720    3.4607157 
C    -0.9623125   -4.8218293    4.7106951 
H    -0.6774747   -4.7118092    6.8609352 
H     1.2269685   -3.1000956    6.6967232 
H     1.9941875   -2.2843337    4.4896718 
H    -1.0134425   -4.7323770    2.5484557 
H    -1.7889090   -5.5369712    4.7737660 
Fe   -2.0905273    2.6255260   -2.0062020 
C    -1.3305829    0.8169803   -1.5377598 
C    -2.3202049    1.2312317   -0.5547189 
C    -3.5631391    1.4398182   -1.2518421 
C    -3.3591898    1.1576061   -2.6421424 
C    -1.9931608    0.7723844   -2.8267828 
C    -2.7225341    4.2948388   -2.9871426 
C    -2.6710840    4.5269565   -1.5699266 
C    -1.3210758    4.2992006   -1.1321904 
C    -0.5386920    3.9364739   -2.2806099 
C    -1.4039649    3.9293242   -3.4245530 
C     0.7500459   -0.7305984   -2.6771749 
C     0.6980733   -2.1357395   -2.6722582 
C     0.9363437   -2.8872800   -3.8355421 
C     1.2318162   -2.1868001   -5.0271655 
C     1.2338407   -0.7720781   -5.0806003 
C     0.9826826   -0.0602866   -3.8976146 
C     1.5106167    1.5751093   -0.9406310 
C     2.5126148    1.9144280   -1.8656111 
C     3.3665652    3.0105009   -1.6467856 
C     3.2051714    3.7637602   -0.4632245 
C     2.2490761    3.4087397    0.5169131 
C     1.4236172    2.3061060    0.2621605 
C    -2.0906534    1.3458978    0.9265781 
H    -4.4955576    1.7882021   -0.8054385 
H    -4.1074890    1.2509181   -3.4311053 
H    -1.5327802    0.4849986   -3.7715112 
H    -3.6114597    4.3661675   -3.6165498 
H    -3.5150091    4.8139328   -0.9394991 
H    -0.9498945    4.3799309   -0.1085139 
H     0.5227256    3.6859740   -2.2733477 
H    -1.1160833    3.6746856   -4.4462637 
H     0.4413889   -2.6608551   -1.7450762 
H     0.9426103    1.0330447   -3.9424898 
H     2.6706302    1.3078778   -2.7596125 
H     0.7171060    1.9940155    1.0389543 
H    -1.1227217    1.8545856    1.0686331 
H    -2.7178025    0.6288968    3.5924661 
H    -2.8590304   -2.4104714    1.9102236 
C    -3.9255272   -3.2662228   -0.4848834 
C    -2.9090241   -2.1405015   -0.2251865 
C    -3.0713070   -1.5776839    1.2069196 
C    -4.5137583   -1.0889687    1.4535464 
C    -5.5235652   -2.2218150    1.1880806 
C    -5.3661565   -2.7905871   -0.2319533 
H    -3.6996524   -4.1217993    0.1828107 
H    -3.8156134   -3.6339847   -1.5210551 
H    -3.0577141   -1.3309408   -0.9622672 
H    -1.8747626   -2.5099570   -0.3647167 
H    -4.6285851   -0.7062402    2.4839460 
H    -4.7264936   -0.2495555    0.7661796 
H    -5.3637869   -3.0295449    1.9295425 
H    -6.5513798   -1.8479228    1.3444643 
H    -5.6224511   -2.0040052   -0.9691288 
H    -6.0779992   -3.6196868   -0.3931581 
C    -0.6874886    1.1122590    5.4307986 
C    -0.5821096    0.7148551    3.9478187 
C    -1.8465750   -0.0436759    3.4816655 
C    -2.1077920   -1.2808911    4.3618769 
C    -2.2089540   -0.8775153    5.8452406 
C    -0.9616940   -0.1128068    6.3172915 
H    -1.5089690    1.8462952    5.5491807 
H     0.2401914    1.6225849    5.7476020 
H     0.2976229    0.0582901    3.7925457 
H    -0.4161731    1.6156074    3.3265991 
H    -3.0387147   -1.7883259    4.0534989 
H    -1.2886506   -2.0046793    4.2342242 
H    -3.1059486   -0.2433328    5.9913899 
H    -2.3570219   -1.7850731    6.4576440 
H    -0.0878146   -0.7903301    6.2775142 
H    -1.0783164    0.1961521    7.3714328 
C    -3.1596866    2.1943862    1.6363827 
H    -3.2820810    3.1355545    1.0729873 
H    -4.1401089    1.6958253    1.6836764 
H    -2.8554611    2.4563708    2.6619044 
C     0.8590294   -4.3960108   -3.8282521 
H     1.8549243   -4.8498277   -3.6653243 
H     0.1974238   -4.7539480   -3.0220996 
H     0.4822927   -4.7683356   -4.7948162 
C     1.4783558   -0.0695284   -6.3949582 
H     2.5358745   -0.1593507   -6.7049397 
H     0.8723708   -0.5235812   -7.1968767 
H     1.2385134    1.0037708   -6.3230032 
O     1.4244076   -2.8827177   -6.1985770 
C     2.7578099   -3.3540800   -6.4401787 
H     2.7341058   -3.8623739   -7.4154000 
H     3.4771934   -2.5139536   -6.4791700 
H     3.0824617   -4.0695450   -5.6612193 
C     4.4536756    3.3594042   -2.6347991 
H     5.3420978    3.7471295   -2.1101326 
H     4.7414310    2.4767387   -3.2285303 
H     4.1188859    4.1428194   -3.3404656 
C     2.1595270    4.1879239    1.8074130 
H     1.6929906    5.1775679    1.6457109 
H     1.5546537    3.6489990    2.5556382 
H     3.1646987    4.3743459    2.2212102 
O     4.0678065    4.8022322   -0.1902082 
C     3.7019669    6.0787608   -0.7343666 
H     4.4741129    6.7894386   -0.4042891 
H     3.6736156    6.0541409   -1.8400447 
H     2.7138143    6.4048591   -0.3576053 
