124
Energy =
C     1.2774070    1.2465924   -2.8053140 
C     2.1790744    0.2167016   -2.4135832 
C     1.8142676   -1.1513244   -2.4470585 
H     3.1158100    0.4996612   -1.9192182 
Pd    0.4062134    0.0645494   -1.1172858 
P    -0.0363605   -1.5322353    0.5105689 
P    -0.9972931    1.7032092   -0.2457424 
H     0.4907233    0.9825064   -3.5278361 
H     1.0168498   -1.4458958   -3.1462533 
C     2.1880436    5.4516810   -2.7238071 
C     2.9850543    4.5539071   -1.9936609 
C     2.6814489    3.1895962   -1.9775654 
C     1.5895008    2.6859799   -2.7253811 
C     0.7883137    3.6024056   -3.4445445 
C     1.0796792    4.9717652   -3.4376970 
H     2.4301015    6.5194202   -2.7327468 
H     3.8440581    4.9221282   -1.4241214 
H     3.2992291    2.5171955   -1.3736461 
H    -0.0694491    3.2329644   -4.0159083 
H     0.4468650    5.6625740   -4.0046396 
C     4.2446567   -4.4367240   -1.0925030 
C     3.0480638   -4.6675519   -1.7868224 
C     2.2722254   -3.5887476   -2.2272650 
C     2.6636112   -2.2549804   -1.9641284 
C     3.8705983   -2.0377704   -1.2578469 
C     4.6549745   -3.1171658   -0.8404746 
H     4.8540216   -5.2757138   -0.7436385 
H     2.7239928   -5.6916498   -1.9991867 
H     1.3575029   -3.7784656   -2.7969828 
H     4.2026641   -1.0216200   -1.0243581 
H     5.5876251   -2.9322542   -0.2992069 
Fe   -2.9507438   -1.5891226    2.5263522 
C    -1.1185901   -1.0301954    1.8773910 
C    -2.0542463    0.0924724    1.8678160 
C    -2.5109851    0.2625354    3.2265806 
C    -1.8983972   -0.7339830    4.0546140 
C    -1.0447667   -1.5355724    3.2336437 
C    -4.6655901   -1.7567410    1.4266946 
C    -3.8169098   -2.8898642    1.1979172 
C    -3.5838482   -3.5363120    2.4593849 
C    -4.2927726   -2.8009498    3.4680010 
C    -4.9617860   -1.7016638    2.8305517 
C     1.6054209   -1.7541827    1.3271261 
C     2.2175950   -2.9835319    1.6257165 
C     3.5098900   -3.0063920    2.1691986 
C     4.2270727   -1.8189213    2.3756401 
C     3.6257317   -0.5975189    2.0476076 
C     2.3158844   -0.5592278    1.5525921 
C    -0.5947343   -3.1938270   -0.0243124 
C    -0.6678607   -4.2935075    0.8499710 
C    -1.0665259   -5.5475003    0.3678954 
C    -1.4442217   -5.7124077   -0.9738441 
C    -1.4156855   -4.6050813   -1.8304605 
C    -0.9829116   -3.3553538   -1.3625441 
C    -2.4670747    0.9461110    0.6890916 
H    -3.2293064    1.0077026    3.5683882 
H    -2.0778794   -0.8765055    5.1215214 
H    -0.4180903   -2.3625779    3.5726369 
H    -5.0165365   -1.0535375    0.6684867 
H    -3.4144295   -3.2019858    0.2328260 
H    -2.9908767   -4.4356176    2.6217798 
H    -4.3072940   -3.0275171    4.5355502 
H    -5.5693577   -0.9444897    3.3297318 
H     1.7284688   -3.9351351    1.4094438 
H     1.8626327    0.4091638    1.3077069 
H    -0.4136668   -4.1861888    1.9077909 
H    -0.9462072   -2.4987873   -2.0437687 
H    -2.8704602    0.2835344   -0.0998499 
C    -3.5276658    1.9937378    1.0586650 
H    -4.3937543    1.4941205    1.5265146 
H    -3.1246398    2.7333197    1.7714231 
H    -3.8834165    2.5290304    0.1647277 
C     4.1607374   -4.3279607    2.5238233 
F     3.5075200   -5.3763268    1.9712689 
F     5.4466352   -4.3720659    2.0937376 
F     4.1812710   -4.5179409    3.8621085 
C     4.4077157    0.6956196    2.0881621 
F     4.6733221    1.1190944    0.8134294 
F     3.7111831    1.6932807    2.6831439 
F     5.5863464    0.5707177    2.7238996 
C    -1.0760507   -6.7193790    1.3285940 
F    -2.0931251   -6.6117841    2.2258612 
F    -1.2169307   -7.8971000    0.6936317 
F     0.0740776   -6.7568648    2.0435984 
C    -1.8103158   -4.7222990   -3.2863516 
F    -2.2464537   -5.9531483   -3.6057526 
F    -2.7859509   -3.8334251   -3.5946946 
F    -0.7515574   -4.4326443   -4.0940632 
H     5.2519743   -1.8467417    2.7545298 
H    -1.7550422   -6.6920589   -1.3443318 
C    -3.1672644    3.9016319   -3.6849470 
C    -2.8248076    4.6552800   -2.5486928 
C    -2.1752050    4.0053724   -1.4796362 
C    -1.8415983    2.6436744   -1.5706112 
C    -2.2091500    1.9090910   -2.7180879 
C    -2.8847596    2.5231201   -3.7847312 
H    -3.6761373    4.4002371   -4.5188615 
H    -1.9288266    4.5751527   -0.5784608 
H    -1.9555774    0.8422570   -2.7812199 
C    -3.1098964    6.1387990   -2.4773307 
H    -3.9155963    6.4321161   -3.1697838 
H    -3.3971038    6.4451216   -1.4571407 
H    -2.2063447    6.7163455   -2.7506078 
C    -3.2925259    1.7394419   -5.0122844 
H    -2.8974469    2.2071564   -5.9315727 
H    -2.9272720    0.7001050   -4.9706792 
H    -4.3927719    1.7095709   -5.1115347 
C     1.3874349    4.4302864    2.6294211 
C     0.8566493    3.2160123    3.1001897 
C     0.1006733    2.4315748    2.2135486 
C    -0.1164082    2.8428472    0.8798520 
C     0.4630240    4.0455937    0.4223212 
C     1.2007552    4.8606372    1.3029361 
H     1.9631661    5.0621888    3.3166851 
H    -0.3208162    1.4926471    2.5783996 
H     0.3413195    4.3609652   -0.6182776 
C     1.1067870    2.7506001    4.5170333 
H     0.4034587    1.9530185    4.8089919 
H     2.1317629    2.3480199    4.6105645 
H     1.0114829    3.5816326    5.2366028 
C     1.7858903    6.1773284    0.8431431 
H     2.8866733    6.1119603    0.7648493 
H     1.3956392    6.4714193   -0.1435169 
H     1.5584982    6.9815545    1.5644984 
