112
Energy =
C     1.8740197    2.7283852   -0.2845325 
C     0.7402897    3.1943238    0.4404372 
C     0.4471935    2.7627221    1.7516016 
H     0.0114724    3.8288390   -0.0780358 
Pd    0.5296232    0.9916765    0.2441528 
P    -1.2220610   -0.4031559    0.9548848 
P     1.6653980   -0.6269858   -0.9812586 
H     2.7506179    2.4131745    0.2993858 
H     1.2670756    2.3055627    2.3264187 
C     2.7278819    4.0201608   -4.3102711 
C     3.7504936    3.5310298   -3.4849525 
C     3.4620671    3.1132771   -2.1803709 
C     2.1442542    3.1560292   -1.6724689 
C     1.1230473    3.6421528   -2.5241961 
C     1.4131132    4.0789865   -3.8200290 
H     2.9524493    4.3540881   -5.3282849 
H     4.7801581    3.4850055   -3.8538612 
H     4.2770716    2.7726725   -1.5328985 
H     0.0849035    3.6666488   -2.1751264 
H     0.6072355    4.4583201   -4.4572411 
C    -2.7849334    4.2040589    4.2049297 
C    -1.7064728    3.5086648    4.7726469 
C    -0.6641145    3.0457161    3.9614946 
C    -0.6764826    3.2588016    2.5631146 
C    -1.7648931    3.9748650    2.0096439 
C    -2.8042212    4.4413242    2.8202884 
H    -3.6009622    4.5681439    4.8372350 
H    -1.6735400    3.3324692    5.8527362 
H     0.1803042    2.5161409    4.4153859 
H    -1.8050434    4.1631422    0.9321110 
H    -3.6366942    4.9920625    2.3703106 
Fe   -0.0202097   -3.3282892   -2.5233301 
C     0.8892186   -2.2639095   -1.0593260 
C    -0.4733623   -2.6147825   -0.6825094 
C    -0.5524548   -4.0560631   -0.6983729 
C     0.7166773   -4.5887398   -1.0973200 
C     1.6050476   -3.4939574   -1.3373814 
C    -0.9875186   -4.4462276   -3.9355479 
C    -1.6642147   -3.1958483   -3.7360111 
C    -0.7367521   -2.1406602   -4.0231132 
C     0.5138986   -2.7377210   -4.4063006 
C     0.3553693   -4.1614119   -4.3543060 
C     3.2118301   -0.9155034   -0.0202802 
C     4.2764152    0.0031678   -0.1459408 
C     5.4277223   -0.1299640    0.6398696 
C     5.5295027   -1.1777728    1.5689212 
C     4.4797761   -2.0989664    1.6946269 
C     3.3276046   -1.9734205    0.9046434 
C     2.2189891   -0.2479546   -2.6849941 
C     1.3722944    0.5308518   -3.4959631 
C     1.7074426    0.7750739   -4.8336591 
C     2.8958351    0.2523581   -5.3655442 
C     3.7486445   -0.5166590   -4.5577122 
C     3.4148424   -0.7686969   -3.2196985 
C    -1.6234232   -1.6702086   -0.3911970 
H    -1.4402812   -4.6517130   -0.4847720 
H     0.9490501   -5.6459645   -1.2368057 
H     2.6466726   -3.5620688   -1.6556887 
H    -1.4123066   -5.4386026   -3.7733324 
H    -2.6995906   -3.0721362   -3.4131613 
H    -0.9395263   -1.0707059   -3.9586518 
H     1.4255532   -2.2012766   -4.6724944 
H     1.1309635   -4.9006455   -4.5630140 
H     4.2095505    0.8103362   -0.8805243 
H     2.5253650   -2.7092345    0.9996336 
H     0.4531723    0.9478940   -3.0709517 
H     4.0830821   -1.3702638   -2.5949007 
H    -1.7345005   -1.0109069   -1.2719772 
C    -2.9428815   -2.4313148   -0.1802752 
H    -3.0993795   -3.1304700   -1.0191014 
H    -2.9367748   -3.0163201    0.7548732 
H    -3.8029193   -1.7472724   -0.1557640 
H     6.2498274    0.5839502    0.5229264 
H     4.5571019   -2.9272032    2.4068072 
H     1.0467684    1.3849096   -5.4571308 
H     4.6770325   -0.9242841   -4.9710751 
H     6.4285473   -1.2805718    2.1851320 
H     3.1604461    0.4477266   -6.4097723 
H    -2.3561563    1.5330190    1.6941634 
C    -5.0423462    1.1864066    2.0773639 
C    -3.9434334    0.1140591    1.9454197 
C    -2.7543891    0.6692800    1.1277983 
C    -3.2014651    1.2060374   -0.2533474 
C    -4.3373645    2.2373130   -0.1178831 
C    -5.5133293    1.6796386    0.6998410 
H    -4.6449440    2.0403154    2.6599505 
H    -5.8907694    0.7739783    2.6522148 
H    -4.3695029   -0.7803940    1.4594287 
H    -3.6096917   -0.1993274    2.9493831 
H    -2.3327719    1.6526520   -0.7769087 
H    -3.5573055    0.3693982   -0.8849186 
H    -3.9478988    3.1421016    0.3836730 
H    -4.6742909    2.5490219   -1.1229754 
H    -5.9786013    0.8380021    0.1490181 
H    -6.2958652    2.4508822    0.8144740 
H    -2.0071277   -1.8568602    2.7306570 
C    -0.7025320   -0.9921591    5.0792868 
C    -0.8510922   -0.2949603    3.7162858 
C    -1.0542424   -1.3136601    2.5741167 
C     0.1106279   -2.3249340    2.5595121 
C     0.2654518   -3.0243856    3.9221516 
C     0.4473169   -2.0115554    5.0633471 
H    -1.6512006   -1.5064786    5.3292481 
H    -0.5397894   -0.2321635    5.8651195 
H     0.0689705    0.2796193    3.4958387 
H    -1.6757217    0.4366397    3.7527388 
H    -0.0286129   -3.0751420    1.7640172 
H     1.0395652   -1.7722931    2.3229092 
H    -0.6330329   -3.6426028    4.1165830 
H     1.1227731   -3.7205004    3.8808440 
H     1.4069155   -1.4749827    4.9230821 
H     0.5144579   -2.5328243    6.0347839 
