112
Energy =
C     2.6022721    2.0003264   -0.7153861 
C     1.5838813    2.6036325   -1.5064409 
C     0.4207619    3.1381828   -0.9029545 
H     1.6404727    2.5314322   -2.5996934 
Pd    0.6505272    0.9179436   -0.4226985 
P    -1.5804360    0.2187042   -0.2871778 
P     1.5609825   -0.8848846    0.7550346 
H     2.7093952    2.3532104    0.3208614 
H     0.4912896    3.3728870    0.1704528 
C     6.1267337    0.0724886   -2.2619485 
C     4.9859846    0.1889772   -3.0745118 
C     3.8345140    0.8137043   -2.5875797 
C     3.7961550    1.3404126   -1.2747786 
C     4.9547055    1.2270230   -0.4744585 
C     6.1070004    0.5978682   -0.9622139 
H     7.0259823   -0.4210518   -2.6444199 
H     4.9950976   -0.2159192   -4.0919758 
H     2.9483894    0.8776251   -3.2292093 
H     4.9473122    1.6441520    0.5376001 
H     6.9936694    0.5215519   -0.3239869 
C    -2.8487675    5.1856006   -2.8087464 
C    -2.7540751    5.1216653   -1.4096626 
C    -1.6800926    4.4540170   -0.8103947 
C    -0.6849552    3.8212287   -1.5930921 
C    -0.7884542    3.9043036   -3.0012001 
C    -1.8558128    4.5832088   -3.5991710 
H    -3.6835735    5.7123076   -3.2817827 
H    -3.5145946    5.6009771   -0.7846228 
H    -1.6009764    4.4207881    0.2821607 
H    -0.0279967    3.4419150   -3.6381958 
H    -1.9143760    4.6450781   -4.6906270 
Fe   -0.3689565   -3.3880162    2.5908179 
C     0.3258998   -1.5871598    1.9055803 
C    -1.0937693   -1.7440209    1.6150239 
C    -1.7676738   -1.9471758    2.8723615 
C    -0.7974088   -1.9174829    3.9279637 
C     0.4915848   -1.7109427    3.3405705 
C    -0.0123289   -5.0051249    3.7861953 
C    -1.3182185   -5.0914403    3.1980454 
C    -1.1630944   -5.0946173    1.7723001 
C     0.2372248   -5.0020600    1.4761357 
C     0.9488491   -4.9504520    2.7241270 
C     2.8540123   -0.2593805    1.9039744 
C     4.1773896   -0.7357492    1.9249176 
C     5.1113653   -0.1779644    2.8139255 
C     4.7397538    0.8663459    3.6700882 
C     3.4231237    1.3593216    3.6402413 
C     2.4865571    0.8017597    2.7632498 
C     2.3451797   -2.2054740   -0.2365506 
C     2.3797075   -2.0748246   -1.6375479 
C     2.9855046   -3.0658437   -2.4223456 
C     3.5609636   -4.1890504   -1.8110292 
C     3.5305512   -4.3236302   -0.4126318 
C     2.9235031   -3.3364260    0.3735419 
C    -1.7593487   -1.5811387    0.2720424 
H    -2.8377101   -2.1287343    2.9929104 
H    -0.9985788   -2.0754562    4.9891368 
H     1.4407550   -1.6445811    3.8738574 
H     0.2083556   -4.9627198    4.8543913 
H    -2.2651377   -5.1244601    3.7401822 
H    -1.9762501   -5.1509457    1.0464026 
H     0.6847334   -4.9696777    0.4818446 
H     2.0302837   -4.8903266    2.8544170 
H     4.4927015   -1.5265493    1.2393749 
H     1.4590316    1.1848452    2.7446555 
H     1.9251889   -1.1947835   -2.1053349 
H     2.8895619   -3.4392470    1.4616358 
H     6.1383416   -0.5576719    2.8227596 
H     3.1271467    2.1783708    4.3038837 
H     3.0105721   -2.9579799   -3.5114585 
H     3.9787985   -5.2011510    0.0648753 
H     5.4724401    1.3013797    4.3575023 
H     4.0343758   -4.9633810   -2.4235270 
H    -2.8439008   -1.7443851    0.4042909 
C    -1.2461451   -2.5507667   -0.8077601 
H    -1.8290285   -2.4719315   -1.7397052 
H    -0.1847316   -2.3776280   -1.0458553 
H    -1.3364688   -3.5808275   -0.4331037 
H    -3.1395052   -0.6913916   -1.9016732 
H    -2.7502689    2.1725842    0.3364986 
C    -2.2250030   -0.0329100   -4.4434600 
C    -1.5019973    0.0997614   -3.0921594 
C    -2.5127689    0.2230007   -1.9256046 
C    -3.4485130    1.4290802   -2.1553545 
C    -4.1685019    1.3068406   -3.5124192 
C    -3.1804632    1.1473366   -4.6788433 
H    -2.7956224   -0.9827003   -4.4568866 
H    -1.4821165   -0.1001262   -5.2589228 
H    -0.8691973    1.0091771   -3.0945013 
H    -0.8202153   -0.7544116   -2.9318501 
H    -4.1992188    1.5035020   -1.3507005 
H    -2.8607546    2.3619105   -2.1353673 
H    -4.8488045    0.4326259   -3.4848762 
H    -4.8037412    2.1979171   -3.6658122 
H    -2.5877325    2.0763463   -4.7783276 
H    -3.7285842    1.0149523   -5.6286617 
C    -2.5054191    2.6261606    3.0521887 
C    -1.7256383    1.6464453    2.1567764 
C    -2.5645957    1.2484667    0.9194553 
C    -3.9280244    0.6579555    1.3384268 
C    -4.6991818    1.6540643    2.2246006 
C    -3.8736956    2.0537225    3.4587702 
H    -2.6576177    3.5769563    2.5031003 
H    -1.9062431    2.8706369    3.9478219 
H    -1.4618257    0.7417779    2.7346340 
H    -0.7720948    2.1004340    1.8265403 
H    -4.5288884    0.3847762    0.4522278 
H    -3.7596296   -0.2716105    1.9113781 
H    -4.9388359    2.5577321    1.6301792 
H    -5.6638304    1.2107959    2.5301795 
H    -3.7184301    1.1610754    4.0965863 
H    -4.4287627    2.7869149    4.0705035 
