124
Energy =
C     2.3363638   -0.8792658   -2.1014487 
C     2.3954222    0.5466663   -2.2459193 
C     2.9372044    1.3719257   -1.2508855 
H     1.9603854    1.0064763   -3.1420401 
Pd    0.9785509   -0.0005659   -0.6019109 
P    -0.4600361    1.3668431    0.7198331 
P     0.0426988   -2.0360317    0.0612054 
H     3.1142010   -1.3338999   -1.4735040 
H     3.4656644    0.8780086   -0.4220519 
C     0.9696698   -3.4495045   -5.2831414 
C     0.4298201   -2.1594267   -5.1463573 
C     0.8543274   -1.3220514   -4.1089019 
C     1.8401105   -1.7502985   -3.1891710 
C     2.3811955   -3.0468303   -3.3459004 
C     1.9478327   -3.8891290   -4.3781623 
H     0.6313486   -4.1050690   -6.0917324 
H    -0.3327717   -1.8081048   -5.8491119 
H     0.4023487   -0.3298463   -4.0000160 
H     3.1610782   -3.3889280   -2.6561778 
H     2.3809719   -4.8894444   -4.4810538 
C     3.7117780    5.5923293   -1.5007766 
C     4.1475279    4.8456668   -0.3956652 
C     3.8889739    3.4719735   -0.3324550 
C     3.1801971    2.8134459   -1.3655221 
C     2.7718431    3.5784312   -2.4865272 
C     3.0321284    4.9494809   -2.5501622 
H     3.9129341    6.6671288   -1.5534686 
H     4.6961521    5.3341267    0.4161801 
H     4.2419139    2.8922032    0.5272242 
H     2.2411587    3.1000466   -3.3157377 
H     2.7072611    5.5223420   -3.4247273 
Fe   -3.0340445    0.0801694    2.9984200 
C    -1.9388690    0.4526465    1.2910573 
C    -1.9477674   -0.9641461    1.6257043 
C    -3.3198066   -1.4021078    1.6421666 
C    -4.1614150   -0.2803747    1.3459933 
C    -3.3212395    0.8632670    1.1478873 
C    -3.3169836    1.5514094    4.3995448 
C    -4.4538988    0.6803561    4.3350862 
C    -4.0104523   -0.6522612    4.6319847 
C    -2.5994060   -0.6052167    4.8842715 
C    -2.1700477    0.7557493    4.7393212 
C    -0.7449871   -1.8595630    1.7678656 
H    -3.6567639   -2.4138927    1.8774047 
H    -5.2525984   -0.2846322    1.3214791 
H    -3.6689559    1.8714888    0.9185048 
H    -3.3293694    2.6293774    4.2325414 
H    -5.4740210    0.9743861    4.0815131 
H    -4.6343951   -1.5479209    4.6423664 
H    -1.9698962   -1.4589214    5.1412260 
H    -1.1535574    1.1249119    4.8797757 
H    -2.0027766    3.1900719    0.2271916 
C    -2.3817596    3.1538215   -2.5814706 
C    -1.8111719    2.0807521   -1.6386234 
C    -1.2007774    2.7067892   -0.3636291 
C    -0.1440985    3.7616176   -0.7426527 
C    -0.7143497    4.8316443   -1.6886856 
C    -1.3194033    4.2004212   -2.9513102 
H    -3.2346147    3.6569220   -2.0845089 
H    -2.7872581    2.6695416   -3.4882355 
H    -1.0136799    1.5126694   -2.1616477 
H    -2.5943652    1.3504508   -1.3752423 
H     0.2764308    4.2457071    0.1541114 
H     0.6947074    3.2457531   -1.2384568 
H    -1.4934421    5.4133142   -1.1576518 
H     0.0878339    5.5433809   -1.9538123 
H    -0.5134514    3.7105881   -3.5346062 
H    -1.7539467    4.9785052   -3.6038054 
H     0.1127846    1.3829350    3.0092403 
C    -0.0711092    3.9516971    4.0643192 
C    -0.6296804    3.3842859    2.7454948 
C     0.2179304    2.1904333    2.2606975 
C     1.7096284    2.5467067    2.1375598 
C     2.2497066    3.1275614    3.4559090 
C     1.4128976    4.3302934    3.9237845 
H    -0.1800883    3.1978435    4.8683666 
H    -0.6687700    4.8279148    4.3736399 
H    -0.6169309    4.1869825    1.9860553 
H    -1.6790397    3.0645776    2.8629550 
H     2.2828192    1.6475740    1.8423679 
H     1.8486531    3.2848735    1.3278330 
H     2.2281736    2.3405118    4.2357869 
H     3.3086311    3.4182048    3.3295104 
H     1.5113527    5.1514908    3.1860815 
H     1.8014736    4.7179638    4.8821219 
H    -2.0573054   -3.1865533   -0.2395936 
C    -2.2041970   -4.2967638   -2.7867041 
C    -0.9699283   -3.7945400   -2.0134848 
C    -1.3720920   -2.7220770   -0.9777352 
C    -2.1186224   -1.5613892   -1.6732908 
C    -3.3480978   -2.0651633   -2.4459784 
C    -2.9628626   -3.1465753   -3.4665319 
H    -2.8835827   -4.8231582   -2.0869076 
H    -1.8810563   -5.0421631   -3.5355507 
H    -0.2469922   -3.3630642   -2.7245149 
H    -0.4733984   -4.6514634   -1.5293554 
H    -2.4225160   -0.8052034   -0.9333972 
H    -1.4142950   -1.0665634   -2.3690700 
H    -4.0824194   -2.4764264   -1.7252477 
H    -3.8423769   -1.2127910   -2.9469625 
H    -2.3147157   -2.6974582   -4.2435289 
H    -3.8611976   -3.5309747   -3.9819057 
H     1.4584650   -3.6963661   -0.8378341 
C     1.7185875   -5.8539671    0.8161812 
C     0.7258540   -4.6824717    0.9474552 
C     1.2778825   -3.4326208    0.2231026 
C     2.6404107   -3.0335328    0.8338126 
C     3.6428995   -4.1942063    0.6932855 
C     3.1089042   -5.4766102    1.3545576 
H     1.7976562   -6.1372364   -0.2519105 
H     1.3246131   -6.7373841    1.3497777 
H     0.5832611   -4.4473929    2.0200653 
H    -0.2628846   -4.9731144    0.5504738 
H     3.0291965   -2.1181241    0.3556200 
H     2.5162001   -2.7942355    1.9047238 
H     3.8300069   -4.3838235   -0.3824882 
H     4.6129354   -3.9069554    1.1370088 
H     3.0420962   -5.3166407    2.4489348 
H     3.8171999   -6.3100917    1.2015524 
H    -1.1138593   -2.8649298    2.0369867 
C     0.2963265   -1.4038629    2.8079932 
H    -0.2222748   -0.9894133    3.6857011 
H     0.9237191   -2.2471197    3.1374318 
H     0.9663709   -0.6247968    2.4026121 
