110
Energy =
C     2.9440873   -1.6837450   -1.6474418 
C     2.3399063   -0.9723272   -2.7020736 
C     2.3679318    0.4602519   -2.7446011 
H     1.7252315   -1.5205438   -3.4263910 
Pd    1.3074950   -0.1883230   -0.9090959 
P     0.5951968    1.9436495   -0.2206697 
P     0.0370723   -1.6497910    0.4182510 
H     3.6531471   -1.1309845   -1.0107901 
H     3.2588653    0.9642822   -2.3480824 
C     3.1340627   -5.9405244   -1.1196259 
C     3.6685867   -5.0745603   -0.1535435 
C     3.6012463   -3.6911038   -0.3437119 
C     2.9833133   -3.1415547   -1.4922514 
C     2.4559281   -4.0289787   -2.4597415 
C     2.5346840   -5.4114867   -2.2745214 
H     3.1923838   -7.0248011   -0.9791778 
H     4.1476401   -5.4782327    0.7442094 
H     4.0377078   -3.0210243    0.4034152 
H     1.9936968   -3.6390299   -3.3703975 
H     2.1258791   -6.0824377   -3.0362154 
C     0.0937992    2.7631789   -5.5907203 
C    -0.3167883    1.4611441   -5.2572755 
C     0.4143240    0.7081858   -4.3333958 
C     1.5850475    1.2318003   -3.7305467 
C     1.9859097    2.5422747   -4.0782810 
C     1.2455200    3.2998263   -4.9946248 
H    -0.4814165    3.3544781   -6.3106276 
H    -1.2187638    1.0370337   -5.7104201 
H     0.0595426   -0.2913826   -4.0600875 
H     2.8832276    2.9695032   -3.6193637 
H     1.5728956    4.3141417   -5.2447058 
Fe   -3.4625366    0.6564018    2.7544511 
C    -1.7687945    0.0959252    1.7784763 
C    -2.1008810    1.4822426    1.4655939 
C    -2.1571660    2.2065986    2.7118524 
H    -2.3847045    3.2691249    2.8026955 
C    -1.8320412    1.3098968    3.7771862 
H    -1.7961293    1.5610729    4.8381418 
C    -1.6015193    0.0147459    3.2114547 
H    -1.3630795   -0.8893482    3.7725268 
C    -4.8448787   -0.8380675    2.5522448 
H    -4.6763415   -1.8229040    2.1112679 
C    -5.2790123    0.3355715    1.8498066 
H    -5.5159304    0.3908146    0.7856819 
C    -5.3641767    1.4146258    2.7945525 
H    -5.6598893    2.4428147    2.5774331 
C    -4.9907216    0.9033646    4.0827034 
H    -4.9364055    1.4774435    5.0094721 
C    -4.6698608   -0.4883326    3.9332724 
H    -4.3300679   -1.1557632    4.7274631 
C    -2.2460845    2.1077036    0.1228178 
C    -1.1280944    2.3124265   -0.7323435 
C    -1.3353943    2.7309372   -2.0657197 
H    -0.4857663    2.8179252   -2.7486890 
C    -2.6180724    3.0466382   -2.5273688 
H    -2.7537491    3.3680563   -3.5649453 
C    -3.7093744    2.9622977   -1.6513628 
H    -4.7137403    3.2379653   -1.9891719 
C    -3.5177774    2.4885709   -0.3479691 
H    -4.3659175    2.3704047    0.3302704 
C    -0.2766084   -3.1660339   -0.5911768 
C    -0.6588727   -2.9856001   -1.9403763 
H    -0.7042625   -1.9738212   -2.3594313 
C    -0.9935125   -4.0842741   -2.7412762 
C    -0.9259800   -5.3830349   -2.2140540 
H    -1.1860976   -6.2440764   -2.8382857 
C    -0.5033280   -5.5738773   -0.8913397 
C    -0.1793252   -4.4749928   -0.0817163 
H     0.1607510   -4.6459754    0.9433693 
C     0.7402490   -2.2754425    1.9960770 
C     2.0934501   -2.0055181    2.2808006 
H     2.6808358   -1.4144828    1.5690529 
C     2.6844333   -2.4716044    3.4633927 
C     1.9259841   -3.2178372    4.3770221 
H     2.3832531   -3.5813939    5.3030141 
C     0.5778953   -3.4977011    4.1027024 
C    -0.0128898   -3.0310889    2.9205428 
H    -1.0648586   -3.2622555    2.7221298 
C    -1.7327163   -1.0964168    0.8487487 
H    -2.1385998   -1.9551924    1.4127389 
C    -2.5777875   -0.9232786   -0.4263997 
H    -3.5292210   -0.4450742   -0.1469308 
H    -2.0843260   -0.2752916   -1.1704109 
H    -2.7960366   -1.8955275   -0.8931715 
C     3.4607027    5.3139614   -1.7072772 
C     3.9428834    4.1167820   -1.1525610 
C     3.0446612    3.1213229   -0.7511332 
C     1.6528766    3.3041434   -0.8996196 
C     1.1760130    4.5197348   -1.4240498 
C     2.0792581    5.5138065   -1.8324103 
H     4.1609372    6.0914883   -2.0293558 
H     5.0197372    3.9600920   -1.0312829 
H     3.4239659    2.1939099   -0.3043268 
H     0.1019217    4.7019467   -1.5174688 
H     1.6950772    6.4510477   -2.2483763 
C     1.3082246    3.0704000    4.2354631 
C     1.5406372    1.7591908    3.8010618 
C     1.2837468    1.4072006    2.4678088 
C     0.7947788    2.3611802    1.5634750 
C     0.5706373    3.6842954    2.0007356 
C     0.8196503    4.0312122    3.3328613 
H     1.5096748    3.3494356    5.2750174 
H     1.9178391    1.0013635    4.4957222 
H     1.4536249    0.3830606    2.1319229 
H     0.2041926    4.4415391    1.2995991 
H     0.6396284    5.0580091    3.6681028 
H    -1.3031617   -3.9259550   -3.7797380 
H    -0.4185801   -6.5859361   -0.4823205 
H     3.7362096   -2.2492680    3.6714972 
H    -0.0168181   -4.0822449    4.8123411 
