142
Energy =
C     1.2602118    3.0578494   -0.0109616 
C     1.6580375    2.6761845    1.3027731 
C     2.7782616    1.8372773    1.4993775 
H     1.0319547    2.9578863    2.1592214 
Pd    1.1582392    0.8080334    0.2108080 
P     1.2223300   -1.2701228    1.2745344 
P    -0.1929399    0.4710774   -1.7273347 
H     2.0448686    3.0952359   -0.7793145 
H     3.4851910    1.7559617    0.6586939 
C    -2.1645809    5.5084822   -0.8834026 
C    -2.1644070    4.6989771    0.2651985 
C    -1.0583652    3.8983463    0.5615726 
C     0.0713044    3.8820926   -0.2900190 
C     0.0568413    4.7003363   -1.4412496 
C    -1.0473044    5.5105486   -1.7313262 
H    -3.0307764    6.1381305   -1.1122117 
H    -3.0332766    4.6902000    0.9319056 
H    -1.0817520    3.2685613    1.4551354 
H     0.9232879    4.6980763   -2.1110135 
H    -1.0344228    6.1430427   -2.6247684 
C     4.4620362    0.4637983    5.2071164 
C     5.1981433    0.4073231    4.0139992 
C     4.6304244    0.8540336    2.8159018 
C     3.3191540    1.3853430    2.7878777 
C     2.6049704    1.4738466    4.0067249 
C     3.1656635    1.0061926    5.1985661 
H     4.8976374    0.0886398    6.1382571 
H     6.2120315   -0.0032953    4.0167347 
H     5.2042829    0.7890050    1.8853293 
H     1.6077353    1.9197305    4.0349538 
H     2.5889663    1.0744258    6.1268150 
Fe   -2.4020435   -3.9637494   -0.0998837 
C    -1.0367383   -2.5039448    0.2059439 
C    -1.6489612   -2.3365743   -1.1035347 
C    -3.0739516   -2.2270356   -0.9094709 
H    -3.8017416   -2.0985545   -1.7107371 
C    -3.3485849   -2.2658500    0.4929007 
H    -4.3348837   -2.2058630    0.9555514 
C    -2.1057811   -2.4422127    1.1838828 
H    -2.0017342   -2.5705541    2.2607827 
C    -1.5435105   -5.7271423    0.4778353 
H    -0.5727474   -5.8506258    0.9630853 
C    -1.7842444   -5.7325239   -0.9369746 
H    -1.0288439   -5.8753485   -1.7119836 
C    -3.1916493   -5.5340344   -1.1485693 
H    -3.7001876   -5.4844440   -2.1132680 
C    -3.8184373   -5.4121214    0.1374205 
H    -4.8801281   -5.2355150    0.3190041 
C    -2.7998331   -5.5308896    1.1430649 
H    -2.9467009   -5.4546084    2.2225455 
C    -0.9791941   -2.2116508   -2.4239333 
C    -0.2247855   -1.0598060   -2.7900944 
C     0.4362470   -1.0447362   -4.0378044 
H     1.0227494   -0.1709940   -4.3324984 
C     0.3297053   -2.1175542   -4.9317442 
H     0.8561779   -2.0770320   -5.8907415 
C    -0.4739007   -3.2164422   -4.6049268 
H    -0.5929651   -4.0476325   -5.3075651 
C    -1.1170477   -3.2521035   -3.3628725 
H    -1.7348175   -4.1077596   -3.0806999 
C     0.3426463    1.7429873   -2.9473622 
C    -0.5463324    2.5513276   -3.6716317 
H    -1.6213800    2.4959011   -3.4806129 
C    -0.0789438    3.4896412   -4.6111817 
C     1.3144360    3.5980925   -4.8144584 
C     2.2388411    2.8153729   -4.0792626 
C     1.7313615    1.8955727   -3.1502198 
H     2.4364259    1.2846691   -2.5699307 
C    -1.9519876    0.7580971   -1.3308132 
C    -2.9606378    0.7201341   -2.3159411 
H    -2.7054693    0.4950427   -3.3576372 
C    -4.3036493    0.9297154   -1.9728330 
C    -4.6240608    1.1511105   -0.6097962 
C    -3.6424442    1.1260267    0.4043694 
C    -2.3069684    0.9413286    0.0136761 
H    -1.5238879    0.8972403    0.7788352 
C     2.9242518   -1.8278879    1.7004465 
C     3.3194865   -2.3170254    2.9585589 
H     2.6158383   -2.3756542    3.7915256 
C     4.6532006   -2.6847481    3.1796970 
C     5.6106767   -2.5688631    2.1608976 
H     6.6543471   -2.8377056    2.3438640 
C     5.2199098   -2.0616470    0.9158258 
C     3.8879334   -1.6926569    0.6846242 
H     3.6051945   -1.2765914   -0.2888334 
C     0.3248813   -1.1506512    2.8815024 
C     0.0769838   -2.2642158    3.7030507 
H     0.4676904   -3.2546198    3.4502528 
C    -0.7273086   -2.1354467    4.8454333 
C    -1.2623500   -0.8928327    5.2101648 
H    -1.8860368   -0.8014917    6.1034592 
C    -0.9939779    0.2233788    4.4038661 
C    -0.2278496    0.0880602    3.2410701 
H    -0.0652033    0.9519384    2.5910051 
C     0.4113138   -2.8033718    0.5234346 
H     0.4198941   -3.5398543    1.3462409 
C     1.2540360   -3.3688419   -0.6302117 
H     0.6839125   -4.1702647   -1.1266828 
H     1.4902534   -2.6075210   -1.3909334 
H     2.1986860   -3.7909296   -0.2511624 
C    -1.0981821   -3.3922566    5.6033606 
F    -1.5787894   -3.1267467    6.8322211 
F    -2.0599304   -4.0772178    4.9235471 
F    -0.0377256   -4.2216593    5.7300065 
C    -1.4819281    1.5925144    4.8197247 
F    -1.5087267    2.4562477    3.7648930 
F    -2.7204390    1.5536280    5.3473829 
F    -0.6545774    2.1374263    5.7459394 
C     5.0862660   -3.1921405    4.5400477 
F     6.2503788   -2.6123584    4.9267942 
F     4.1619126   -2.9254254    5.4927190 
F     5.2893660   -4.5275634    4.5278607 
C     6.2425086   -1.7798619   -0.1619349 
F     5.7720914   -2.0998471   -1.3899258 
F     6.5371512   -0.4474833   -0.1904499 
F     7.3958810   -2.4449285    0.0351014 
C    -1.0374101    4.3992158   -5.3426231 
H    -0.5682028    5.3774722   -5.5385952 
H    -1.3347554    3.9723343   -6.3188969 
H    -1.9574271    4.5511789   -4.7548074 
C     3.7216098    3.0071727   -4.2903789 
H     4.3068932    2.4444557   -3.5449947 
H     4.0305531    2.6631714   -5.2941798 
H     3.9879650    4.0759724   -4.2270882 
C    -5.4078841    0.8870522   -3.0021402 
H    -5.8771486    1.8800427   -3.1263741 
H    -5.0238741    0.5666970   -3.9840292 
H    -6.2093676    0.1975798   -2.6859713 
C    -4.0166992    1.2440937    1.8628872 
H    -3.8656369    2.2709840    2.2436893 
H    -5.0738994    0.9751614    2.0150812 
H    -3.3904756    0.5743232    2.4757730 
O     1.8159471    4.5533687   -5.6696024 
O    -5.9533364    1.2988418   -0.2785760 
C     1.8535449    4.2014819   -7.0606796 
H     2.3027063    5.0586798   -7.5836130 
H     2.4747346    3.3008625   -7.2265658 
H     0.8390702    4.0176892   -7.4612256 
C    -6.3892047    2.6492158   -0.0654814 
H    -6.2382382    3.2634060   -0.9737260 
H    -7.4627393    2.5959774    0.1689331 
H    -5.8509093    3.1205083    0.7789911 
