124
Energy =
C     1.0855962   -3.1522761   -0.5701878 
C     1.8448653   -2.3576802   -1.4704552 
C     2.8961482   -1.5226989   -1.0112325 
H     1.5195718   -2.2924453   -2.5165562 
Pd    0.9110841   -0.9687628   -0.0307060 
P     1.3640099    1.2507907    0.5673895 
P    -1.2408717   -1.0290423    0.8163772 
H     1.5666915   -3.4283793    0.3810978 
H     3.3693298   -1.7911382   -0.0554290 
C    -2.1622764   -5.7477818   -1.6814922 
C    -1.3365875   -6.0581759   -0.5913153 
C    -0.2954923   -5.1940625   -0.2280922 
C    -0.0371360   -4.0202429   -0.9700480 
C    -0.8686253   -3.7285865   -2.0762431 
C    -1.9266653   -4.5747890   -2.4199337 
H    -2.9862245   -6.4142913   -1.9566939 
H    -1.5122228   -6.9687251   -0.0093465 
H     0.3275917   -5.4278578    0.6419401 
H    -0.7030649   -2.8173369   -2.6578450 
H    -2.5730553   -4.3170987   -3.2653139 
C     5.3039422    1.1119830   -3.4226676 
C     4.1341699    0.5521906   -3.9644979 
C     3.3407493   -0.3058687   -3.1976491 
C     3.6972446   -0.6289878   -1.8660619 
C     4.8860507   -0.0718189   -1.3429076 
C     5.6778808    0.7906742   -2.1102307 
H     5.9224609    1.7847907   -4.0254978 
H     3.8437271    0.7831469   -4.9949107 
H     2.4346298   -0.7287749   -3.6442402 
H     5.1851325   -0.3177036   -0.3187297 
H     6.5902347    1.2135385   -1.6770573 
Fe   -2.7410840    2.1016193    1.3282339 
C    -1.7464324    0.3943431    1.8390994 
C    -0.9962698    1.5824800    2.2373926 
C    -1.8534820    2.3288787    3.1291541 
C    -3.0955147    1.6370328    3.2831993 
C    -3.0405823    0.4552943    2.4837556 
C    -4.5330687    2.7429562    0.5665397 
C    -3.7323175    3.8539266    0.9953170 
C    -2.5023257    3.8228126    0.2575684 
C    -2.5406080    2.6903587   -0.6246491 
C    -3.8003829    2.0290920   -0.4348109 
C     0.4444084    2.0288928    2.0346457 
H    -1.5969861    3.2857090    3.5897104 
H    -3.9506368    1.9751406    3.8710211 
H    -3.8340327   -0.2863355    2.3821887 
H    -5.5158948    2.4726060    0.9570041 
H    -3.9980163    4.5761455    1.7697845 
H    -1.6791467    4.5291214    0.3658237 
H    -1.7545656    2.3859551   -1.3164779 
H    -4.1394392    1.1340693   -0.9533219 
H     0.3964682    3.0972181    1.7605627 
C     1.2300261    1.9553086    3.3654917 
H     0.6564678    2.4819179    4.1459014 
H     1.3783064    0.9205038    3.7086556 
H     2.2179926    2.4329403    3.2757558 
C     5.7596907    1.0904431    2.1808351 
C     4.7618005    0.1445864    2.4931188 
C     3.4855884    0.2680235    1.9453202 
C     3.1376494    1.3362187    1.0818091 
C     4.1337565    2.2834256    0.7303312 
C     5.4165369    2.1291586    1.3008532 
H     4.9864270   -0.6948816    3.1605653 
H     2.7307598   -0.4915053    2.1879000 
H     6.1879135    2.8579227    1.0245414 
C     0.2665311    3.8750793   -3.0914724 
C     0.3749952    4.5144606   -1.8393087 
C     0.7338229    3.7427113   -0.7220864 
C     0.9743335    2.3609324   -0.8435794 
C     0.8588718    1.7550394   -2.1063892 
C     0.5071969    2.4993827   -3.2475495 
H    -0.0230690    4.4688937   -3.9668333 
H     0.8227883    4.2400752    0.2498212 
H     1.0414451    0.6784008   -2.1924153 
C     7.1514319    0.9691890    2.7558864 
H     7.7952000    1.8072453    2.4440545 
H     7.1208674    0.9499506    3.8601148 
H     7.6310269    0.0282618    2.4295851 
C     3.9280479    3.4172632   -0.2475988 
H     4.8835769    3.9306674   -0.4383171 
H     3.5388319    3.0509284   -1.2118785 
H     3.2151480    4.1672496    0.1343404 
C     0.0688460    5.9887453   -1.7012391 
H    -1.0199767    6.1660587   -1.7803718 
H     0.4051684    6.3839665   -0.7284886 
H     0.5546341    6.5759520   -2.4993983 
C     0.4101302    1.8298419   -4.5997800 
H    -0.2831442    2.3647867   -5.2694811 
H     1.4003843    1.8080831   -5.0916380 
H     0.0681638    0.7844749   -4.5065880 
C    -1.8675540   -4.8001312    3.5233593 
C    -2.5334771   -4.6906144    2.3183190 
C    -2.3429781   -3.5527001    1.4911610 
C    -1.5170387   -2.5033069    1.8859380 
H    -2.0147796   -5.6753275    4.1654005 
H    -3.2058236   -5.4845969    1.9788556 
H    -2.8434861   -3.5287374    0.5206826 
C    -0.7615378   -2.6206582    3.1108297 
C    -0.9514223   -3.7881361    3.9380038 
C    -0.2009367   -3.9181097    5.1436730 
C     0.7228132   -2.9570443    5.5200949 
C     0.9281093   -1.8192615    4.6987843 
C     0.1981314   -1.6558119    3.5315654 
H    -0.3620870   -4.8047419    5.7666082 
H     1.2963981   -3.0741835    6.4450633 
H     1.6660394   -1.0642119    4.9913336 
H     0.3642167   -0.7696540    2.9130067 
C    -3.8012265   -1.4566971   -0.3749168 
C    -2.4719962   -1.0804948   -0.5464743 
C    -2.0369634   -0.6280029   -1.8286106 
C    -2.9082195   -0.5859596   -2.9017353 
H    -4.1761037   -1.7692927    0.6041462 
H    -0.9975842   -0.3047890   -1.9470190 
H    -2.5599568   -0.2295404   -3.8775301 
C    -4.2648093   -1.0026113   -2.7616283 
C    -4.7194204   -1.4408206   -1.4638897 
C    -6.0807700   -1.8375870   -1.3047066 
C    -6.9530347   -1.8106962   -2.3798028 
C    -6.5032857   -1.3838081   -3.6595839 
C    -5.1890069   -0.9870298   -3.8464906 
H    -6.4246238   -2.1666479   -0.3178072 
H    -7.9954549   -2.1184503   -2.2484912 
H    -7.2047803   -1.3676720   -4.5000703 
H    -4.8444979   -0.6542805   -4.8317413 
