132
Energy =
C     2.2480266   -1.5297528   -2.3085816 
C     2.2587085   -0.1203796   -2.3995114 
C     2.7024354    0.7030486   -1.3214974 
H     1.7979782    0.3531323   -3.2763315 
Pd    0.9561435   -0.5136616   -0.6764659 
P     0.4631781    0.7035212    1.2448872 
P    -1.0579792   -1.7586545   -0.4521292 
H     2.9235376   -1.9917814   -1.5719044 
H     3.4761842    0.2974906   -0.6539231 
C     1.1203545   -4.1260398   -5.5515095 
C     0.4542389   -2.9007400   -5.3780774 
C     0.7989642   -2.0544254   -4.3189272 
C     1.8161671   -2.4160169   -3.4058914 
C     2.4654349   -3.6592801   -3.5826877 
C     2.1274817   -4.5010297   -4.6496949 
H     0.8518107   -4.7854570   -6.3830175 
H    -0.3376842   -2.6047076   -6.0741503 
H     0.2679748   -1.1061438   -4.1885469 
H     3.2530546   -3.9585155   -2.8818328 
H     2.6497159   -5.4550119   -4.7749565 
C     2.5209767    5.0099997   -1.4476316 
C     1.5941334    4.2490148   -2.1801073 
C     1.6424196    2.8515540   -2.1425421 
C     2.6226623    2.1785761   -1.3742141 
C     3.5501531    2.9573155   -0.6497388 
C     3.4998308    4.3562450   -0.6865801 
H     2.4809022    6.1037552   -1.4758802 
H     0.8290395    4.7492472   -2.7834875 
H     0.8979706    2.2756180   -2.7036305 
H     4.3156637    2.4571271   -0.0483662 
H     4.2301830    4.9374702   -0.1154649 
Fe    1.3683052   -2.1768247    2.8638869 
C     0.2030399   -0.5318327    2.5420020 
C    -0.5580076   -1.7671723    2.4035956 
C    -0.4649422   -2.4480393    3.6734716 
C     0.3513443   -1.6787749    4.5632283 
C     0.7727099   -0.5008342    3.8715861 
C     2.1628878   -3.2582333    1.3130576 
C     3.0802761   -2.2313631    1.7088255 
C     3.3991003   -2.4242460    3.0925859 
C     2.6789815   -3.5761205    3.5538643 
C     1.9156457   -4.0941089    2.4521261 
C    -1.0541501    1.7240580    1.2007100 
C    -1.1677248    2.7202344    0.2100410 
C    -2.3083926    3.5333421    0.1337663 
C    -3.3658424    3.2902182    1.0434508 
C    -3.2735402    2.3048703    2.0537172 
C    -2.0949712    1.5395952    2.1273018 
C     1.7495342    1.8220691    1.9266463 
C     3.0076623    1.2799447    2.2578195 
C     4.0258309    2.0783421    2.7947753 
C     3.7699496    3.4590132    2.9758966 
C     2.5174406    4.0293929    2.6598863 
C     1.5155198    3.1909000    2.1370629 
C    -1.4966166   -2.2626005    1.3198137 
H    -0.9210585   -3.4148557    3.8991843 
H     0.6329341   -1.9588266    5.5798568 
H     1.4120258    0.2899533    4.2653650 
H     1.7313698   -3.3717287    0.3213187 
H     3.4689659   -1.4497194    1.0549817 
H     4.0584906   -1.7980264    3.6962136 
H     2.6939279   -3.9770871    4.5688830 
H     1.2507770   -4.9594374    2.4841991 
H    -0.3475767    2.8796257   -0.4986007 
H    -1.9893609    0.7969336    2.9256351 
H     3.1783306    0.2097473    2.1284271 
H     0.5391387    3.6270315    1.9064941 
H    -1.3571155   -3.3590451    1.2904505 
H    -1.2930645   -3.0238695   -2.4662018 
H    -2.3852327    0.2249865   -0.3065717 
C    -4.6631765    0.1954277   -1.8164633 
C    -3.7840555   -1.0031775   -1.4107577 
C    -2.3432407   -0.5342616   -1.1109090 
C    -1.7682671    0.1560444   -2.3738065 
C    -2.6513952    1.3233802   -2.8457130 
C    -4.1095342    0.8956973   -3.0659500 
H    -4.7013023    0.9130471   -0.9736212 
H    -5.6982936   -0.1492457   -1.9909198 
H    -3.7668209   -1.7269736   -2.2469069 
H    -4.2348553   -1.5135330   -0.5468603 
H    -0.7437030    0.5206769   -2.1582870 
H    -1.6789277   -0.5943074   -3.1835819 
H    -2.6187487    2.1134038   -2.0752026 
H    -2.2266970    1.7574042   -3.7694159 
H    -4.1676924    0.2007478   -3.9267948 
H    -4.7301719    1.7723612   -3.3269082 
C    -2.7293771   -5.3643792   -2.0473194 
C    -2.6068686   -4.1342717   -1.1259052 
C    -1.2949232   -3.3607864   -1.4098722 
C    -0.0997625   -4.3164558   -1.2151823 
C    -0.2116753   -5.5486454   -2.1293652 
C    -1.5264652   -6.3067212   -1.8956698 
H    -2.8004272   -5.0210150   -3.0981405 
H    -3.6717399   -5.8958182   -1.8232095 
H    -2.6002443   -4.4807366   -0.0740271 
H    -3.4918400   -3.4941866   -1.2454811 
H     0.8428739   -3.7847356   -1.4174267 
H    -0.0724361   -4.6496045   -0.1582776 
H    -0.1589498   -5.2119072   -3.1812634 
H     0.6583023   -6.2100058   -1.9664998 
H    -1.5276052   -6.7375059   -0.8746124 
H    -1.6114995   -7.1559764   -2.5968431 
C    -2.9642421   -1.9902864    1.7271214 
H    -3.2140714   -0.9196636    1.6532468 
H    -3.6668492   -2.5624149    1.1016798 
H    -3.1141352   -2.2992872    2.7756566 
C    -2.4234729    4.6545038   -0.8717700 
H    -3.2105709    4.4501171   -1.6205744 
H    -2.7036505    5.5956624   -0.3688157 
H    -1.4726678    4.8012085   -1.4078474 
C    -4.4016473    2.1048089    3.0381346 
H    -4.9193189    3.0577993    3.2338834 
H    -5.1530456    1.3939639    2.6442743 
H    -4.0277454    1.6942635    3.9902298 
O    -4.4721999    4.1087635    0.9875402 
C    -5.5840454    3.6132748    0.2309934 
H    -6.3668961    4.3840294    0.2877448 
H    -5.3064860    3.4486960   -0.8280434 
H    -5.9709724    2.6660519    0.6520311 
C     5.3661931    1.5045707    3.1879877 
H     5.5930155    1.7294546    4.2444337 
H     5.3896667    0.4123267    3.0416976 
H     6.1838893    1.9465546    2.5902687 
C     2.2526903    5.4982567    2.8896604 
H     2.5124268    6.0913256    1.9921501 
H     1.1862276    5.6780896    3.1028243 
H     2.8550395    5.8770343    3.7313175 
O     4.7621607    4.2214799    3.5527830 
C     5.5464247    5.0264397    2.6642900 
H     6.3275103    5.4967654    3.2798242 
H     6.0210468    4.4069603    1.8787876 
H     4.9389923    5.8162812    2.1833232 
