110
Energy =
C    -3.7169340    1.0882582    0.5063312 
C    -2.8196469    1.6769498    1.4091981 
C    -1.7640191    2.5493273    0.9832395 
H    -2.8733599    1.4099256    2.4724795 
Pd   -1.3471850    0.5496015    0.1662241 
P     0.8619476    1.0047337   -0.3380332 
P    -1.0842024   -1.8551810   -0.2057170 
H    -3.7102562    1.4627530   -0.5284832 
H    -1.9581019    3.1669453    0.0943308 
C    -7.1509468   -1.3082047    1.4589543 
C    -6.8729953   -0.9481244    0.1312333 
C    -5.7524070   -0.1636990   -0.1613497 
C    -4.8776479    0.2689180    0.8645242 
C    -5.1839273   -0.0879607    2.2016720 
C    -6.3064476   -0.8669457    2.4923044 
H    -8.0283305   -1.9204929    1.6907235 
H    -7.5362344   -1.2735061   -0.6766683 
H    -5.5444258    0.1228486   -1.1978404 
H    -4.5394397    0.2429215    3.0218735 
H    -6.5290678   -1.1305606    3.5312748 
C     1.1022417    4.1860620    3.7573145 
C     0.6687248    2.8572220    3.8984902 
C    -0.2649364    2.3212181    3.0045336 
C    -0.7973217    3.1093420    1.9575246 
C    -0.3675897    4.4488754    1.8428044 
C     0.5801823    4.9808208    2.7261613 
H     1.8435237    4.6001239    4.4485132 
H     1.0707820    2.2307417    4.7019927 
H    -0.5586492    1.2689059    3.0954628 
H    -0.7799163    5.0784241    1.0480094 
H     0.9211353    6.0127394    2.5991723 
Fe    3.5318520   -1.0587064    0.9918235 
C     1.7419108   -0.1317488    0.7630491 
C     1.5550262   -1.5733080    0.6780648 
C     2.0696372   -2.1464899    1.8927891 
C     2.5107369   -1.0842174    2.7487300 
C     2.3085055    0.1579747    2.0672295 
C     4.7407162   -1.7097877   -0.5378267 
C     4.9695135   -0.3141920   -0.2801541 
C     5.3751875   -0.1776938    1.0885524 
C     5.4023849   -1.4874612    1.6761516 
C     5.0058126   -2.4338323    0.6723018 
C     1.6542577    2.6595896   -0.2245443 
C     1.0084136    3.7466347   -0.8469969 
C     1.5880208    5.0174556   -0.8364766 
C     2.8104061    5.2191141   -0.1763350 
C     3.4774531    4.1377724    0.4167069 
C     2.9107085    2.8576667    0.3778207 
C     1.1934796    0.6317059   -2.1133352 
C     2.2852788   -0.1428597   -2.5382649 
C     2.4738159   -0.4098261   -3.8993395 
C     1.5813860    0.1190349   -4.8447627 
C     0.5074533    0.9245271   -4.4314686 
C     0.3056404    1.1671437   -3.0689314 
C     0.7837916   -2.2680075   -0.4119030 
H     2.1246427   -3.2111724    2.1235185 
H     2.9614867   -1.2000700    3.7359197 
H     2.5255908    1.1447124    2.4741845 
H     4.4384063   -2.1524072   -1.4890577 
H     4.8580890    0.5027283   -0.9959206 
H     5.6182213    0.7573219    1.5970517 
H     5.6571599   -1.7203422    2.7115614 
H     4.9152717   -3.5129802    0.8083464 
H     0.0384077    3.6043683   -1.3343608 
H     3.4556946    2.0098033    0.7990763 
H     2.9591258   -0.5543107   -1.7845602 
H    -0.5628617    1.7523248   -2.7464692 
H     0.9712897   -1.7194895   -1.3482253 
C     1.2460845   -3.7149411   -0.6506384 
H     2.3283876   -3.6882404   -0.8684314 
H     1.0969098   -4.3693285    0.2186170 
H     0.7385906   -4.1714973   -1.5130394 
C     3.3633009    6.6206837   -0.0428199 
F     4.7019471    6.6230018    0.1345959 
F     3.0814820    7.3766796   -1.1264630 
F     2.8139794    7.2473940    1.0345560 
H     1.0837140    5.8596713   -1.3189564 
H     4.4450984    4.2961895    0.9011630 
H     3.3140212   -1.0267860   -4.2312521 
H    -0.1793175    1.3386897   -5.1751760 
C     1.7184915   -0.2492349   -6.3066215 
F     0.9575843   -1.3375562   -6.5931345 
F     1.3060339    0.7518720   -7.1148630 
F     2.9941065   -0.5529904   -6.6316255 
C    -1.9031309   -2.5611469   -1.7954131 
C    -1.7369594   -2.7233767    1.3811288 
C    -2.1433547   -4.0862099   -1.7825183 
H    -2.5653876   -4.3818523   -2.7606779 
H    -1.2143277   -4.6590789   -1.6384650 
H    -2.8633913   -4.3943462   -1.0093596 
C    -1.3934224   -1.7819355    2.5619973 
H    -1.7036201   -2.2636176    3.5078847 
H    -0.3162869   -1.5592415    2.6276724 
H    -1.9399977   -0.8264897    2.4726072 
C    -3.2461980   -1.8197275   -1.9812899 
H    -3.7147540   -2.1517277   -2.9260109 
H    -3.9567947   -2.0187628   -1.1656731 
H    -3.0883941   -0.7280268   -2.0409894 
C    -0.9937638   -2.1987591   -2.9924624 
H    -1.5356909   -2.4175166   -3.9300202 
H    -0.7381003   -1.1272773   -3.0000210 
H    -0.0589009   -2.7819512   -3.0147035 
C    -3.2721899   -2.8463743    1.2998416 
H    -3.6583941   -3.1195055    2.2985375 
H    -3.7437065   -1.8945250    1.0165132 
H    -3.5988877   -3.6268892    0.5958670 
C    -1.1233889   -4.1124175    1.6445452 
H    -0.0529768   -4.0451208    1.8916846 
H    -1.6337664   -4.5595850    2.5175369 
H    -1.2510909   -4.8021037    0.7956821 
