124
Energy =
C     2.1697138    1.5828219    1.9271376 
C     2.1448002    0.3482628    2.6334127 
C     2.5799748   -0.8527994    2.0324306 
H     1.6870497    0.3132587    3.6294556 
Pd    0.8082423    0.0805161    0.8841344 
P    -0.2667281   -1.8751306    0.1173642 
P    -0.1577593    1.5311982   -0.7008023 
H     2.9146787    1.6783796    1.1247033 
H     3.2023030   -0.7571289    1.1297375 
C     0.9205249    5.3537984    3.6004511 
C     0.4174997    4.1538404    4.1317578 
C     0.8148062    2.9236545    3.5989648 
C     1.7329568    2.8596997    2.5238835 
C     2.2487181    4.0752666    2.0183933 
C     1.8424210    5.3084727    2.5443399 
H     0.6021285    6.3158046    4.0145532 
H    -0.2982189    4.1798166    4.9600605 
H     0.3833208    2.0022623    4.0050153 
H     2.9896150    4.0496179    1.2115445 
H     2.2553877    6.2361409    2.1345076 
C     3.0036186   -4.6955181    3.9201930 
C     3.4941881   -4.4705110    2.6245602 
C     3.3497097   -3.2119463    2.0298265 
C     2.6958445   -2.1550573    2.7066234 
C     2.2198473   -2.3938147    4.0175296 
C     2.3771110   -3.6480968    4.6164210 
H     3.1196618   -5.6767008    4.3913075 
H     3.9988599   -5.2753220    2.0801760 
H     3.7509478   -3.0350848    1.0256668 
H     1.7205724   -1.5964118    4.5765325 
H     2.0063231   -3.8128808    5.6332107 
Fe   -2.1747504    0.5134782   -3.5329399 
C    -0.6120488    0.6079679   -2.2138614 
C    -1.2290764   -0.7124256   -2.2061057 
C    -1.1556533   -1.2417008   -3.5432380 
C    -0.5067694   -0.2767552   -4.3801035 
C    -0.1829832    0.8632718   -3.5762959 
C    -4.0027403   -0.0109238   -4.2664185 
C    -4.1556878    0.7135869   -3.0369921 
C    -3.5511002    2.0052769   -3.2090124 
C    -3.0215848    2.0792159   -4.5390687 
C    -3.3034800    0.8332936   -5.1949019 
C    -1.7416920   -1.4363568   -0.9913744 
H    -1.5560281   -2.2003357   -3.8755228 
H    -0.3287598   -0.3725064   -5.4525964 
H     0.2981437    1.7688706   -3.9421450 
H    -4.3469707   -1.0282670   -4.4615777 
H    -4.6595022    0.3527033   -2.1382562 
H    -3.5106449    2.7985979   -2.4626562 
H    -2.4913604    2.9286439   -4.9733424 
H    -3.0174149    0.5652276   -6.2135766 
H    -2.2616724   -0.7063947   -0.3500141 
C    -2.7485972   -2.5478982   -1.3371478 
H    -2.2887666   -3.3944649   -1.8676513 
H    -3.2516900   -2.9387366   -0.4387394 
H    -3.5234258   -2.1149631   -1.9933147 
H     1.4008514    3.2222603   -0.2381254 
C     1.8021892    4.9534939   -2.3253933 
C     0.6580447    3.9422122   -2.1158610 
C     1.1346853    2.7792562   -1.2164840 
C     2.4067468    2.0970139   -1.7711470 
C     3.5296945    3.1255962   -1.9936831 
C     3.0610455    4.2797161   -2.8948888 
H     2.0457832    5.4241793   -1.3522394 
H     1.4608975    5.7656755   -2.9919326 
H     0.3170830    3.5623288   -3.0955796 
H    -0.2076499    4.4526142   -1.6597508 
H     2.7378290    1.3014548   -1.0774219 
H     2.1795809    1.5910185   -2.7263942 
H     3.8515008    3.5338836   -1.0149160 
H     4.4120769    2.6246772   -2.4305691 
H     2.8382511    3.8844138   -3.9059741 
H     3.8697655    5.0216891   -3.0185677 
H    -1.9041327    3.1285698   -1.1009904 
C    -2.4665687    4.4014626    1.3594077 
C    -1.2604781    3.5421021    0.9433024 
C    -1.6295940    2.5651888   -0.1885105 
C    -2.8262552    1.6893473    0.2277865 
C    -4.0336167    2.5446073    0.6517818 
C    -3.6613195    3.5281877    1.7725160 
H    -2.7606678    5.0556129    0.5147506 
H    -2.1655119    5.0682763    2.1871004 
H    -0.9183946    2.9527511    1.8116657 
H    -0.4168416    4.1937204    0.6591661 
H    -3.1014527    1.0271983   -0.6098920 
H    -2.5150737    1.0461055    1.0759881 
H    -4.4030265    3.1117689   -0.2253265 
H    -4.8612580    1.8845216    0.9685784 
H    -3.3953762    2.9568944    2.6841759 
H    -4.5297356    4.1581557    2.0350054 
H     1.5299163   -3.3863481    0.0262352 
C     3.0143200   -3.0043327   -2.2701565 
C     1.9025712   -2.1193533   -1.6788805 
C     0.9367297   -2.9590672   -0.8077643 
C     0.3411924   -4.1272256   -1.6220604 
C     1.4648717   -5.0127850   -2.1925849 
C     2.4345442   -4.1910718   -3.0577980 
H     3.6492088   -3.3895270   -1.4472080 
H     3.6711250   -2.3942342   -2.9160361 
H     1.3381700   -1.6346660   -2.4960652 
H     2.3381111   -1.3018516   -1.0737691 
H    -0.3487660   -4.7294905   -1.0047997 
H    -0.2475892   -3.7142082   -2.4609635 
H     2.0191112   -5.4796907   -1.3544028 
H     1.0253587   -5.8384457   -2.7805167 
H     1.8926790   -3.8071439   -3.9447721 
H     3.2487998   -4.8332834   -3.4379769 
H    -1.9884437   -3.3271280    1.0022340 
C    -2.2861599   -2.7388002    3.7011662 
C    -1.5192009   -1.9660118    2.6143312 
C    -1.0785999   -2.9038420    1.4657465 
C    -0.2417842   -4.0855959    1.9959228 
C    -1.0087787   -4.8456728    3.0946643 
C    -1.4542279   -3.9156664    4.2348184 
H    -3.2348903   -3.1197899    3.2741657 
H    -2.5626682   -2.0526968    4.5221230 
H    -0.6143839   -1.4996813    3.0532643 
H    -2.1381046   -1.1380430    2.2193913 
H     0.0112438   -4.7805469    1.1771284 
H     0.7091636   -3.7136428    2.4064086 
H    -1.8995531   -5.3317283    2.6493675 
H    -0.3680496   -5.6559572    3.4870860 
H    -0.5579392   -3.5207304    4.7506176 
H    -2.0309117   -4.4825091    4.9872670 
