142
Energy =
C    -0.4039243    3.2094513    1.0904079 
C    -0.7274042    2.5648379    2.3062510 
C     0.2666735    1.8800834    3.0676685 
H    -1.7804278    2.4609888    2.5991649 
Pd    0.0828588    0.9332439    1.0654279 
P     1.0089729   -1.1411175    1.6093776 
P    -0.1946571    0.5250201   -1.2521677 
H     0.6568489    3.4343350    0.9092067 
H     1.2990556    2.2567388    3.0016807 
C    -3.1284760    5.3105186   -1.4885840 
C    -1.8251380    5.0124618   -1.9154247 
C    -0.9392811    4.3514748   -1.0591181 
C    -1.3489835    3.9443190    0.2322536 
C    -2.6585530    4.2692203    0.6566607 
C    -3.5342883    4.9522264   -0.1931178 
H    -3.8197828    5.8373653   -2.1547046 
H    -1.4934610    5.3019014   -2.9177332 
H     0.0759320    4.1264150   -1.3977564 
H    -2.9922331    4.0046121    1.6652728 
H    -4.5387516    5.2089813    0.1581905 
C    -0.6120089   -0.3125358    6.6683178 
C    -1.4817936   -0.3972997    5.5677334 
C    -1.2066573    0.3193510    4.3978734 
C    -0.0504525    1.1272524    4.3007594 
C     0.8147734    1.2048977    5.4122477 
C     0.5303817    0.4967011    6.5877530 
H    -0.8160437   -0.8848549    7.5783095 
H    -2.3750526   -1.0291337    5.6230354 
H    -1.8748096    0.2358207    3.5328598 
H     1.7187631    1.8197002    5.3505078 
H     1.2150842    0.5599957    7.4388800 
Fe   -3.0894428   -3.3326851    0.4649270 
C    -1.5750175   -2.0967648    1.0771251 
C    -1.6929506   -2.0820398   -0.3722453 
C    -3.0409016   -1.6787445   -0.6907002 
H    -3.4419754   -1.5768582   -1.6997015 
C    -3.7419202   -1.4173193    0.5302571 
H    -4.7864718   -1.1125992    0.6148142 
C    -2.8451225   -1.6760680    1.6171924 
H    -3.0875846   -1.6157041    2.6802638 
C    -2.6551211   -5.3455658    0.4229472 
H    -1.6762691   -5.8241185    0.3651295 
C    -3.4837126   -4.9799469   -0.6913381 
H    -3.2371176   -5.0997844   -1.7479764 
C    -4.6960847   -4.4155456   -0.1747822 
H    -5.5207163   -4.0162202   -0.7681090 
C    -4.6167272   -4.4286043    1.2582831 
H    -5.3736220   -4.0458349    1.9455409 
C    -3.3548270   -5.0015145    1.6282031 
H    -3.0009725   -5.1548527    2.6494778 
C    -0.5973126   -2.2880212   -1.3615869 
C     0.1580814   -1.1871552   -1.8628411 
C     1.1960905   -1.4188120   -2.7872832 
H     1.8006947   -0.5800953   -3.1453368 
C     1.4834607   -2.7163094   -3.2335727 
H     2.3022302   -2.8793698   -3.9410096 
C     0.7368916   -3.8006354   -2.7557970 
H     0.9648592   -4.8174018   -3.0894039 
C    -0.2898330   -3.5794414   -1.8289182 
H    -0.8810159   -4.4140351   -1.4449656 
C     0.9619361    1.6307453   -2.1612250 
C     1.9510374    2.3098260   -1.4216744 
H     2.0100595    2.1532041   -0.3366372 
C     2.8414991    3.2093120   -2.0229408 
C     2.7447676    3.3986711   -3.4202072 
C     1.7473686    2.7578983   -4.1929543 
C     0.8614785    1.8819315   -3.5427662 
H     0.0757964    1.4057656   -4.1357916 
C    -1.8758623    0.8526000   -1.9063562 
C    -2.8613897    1.3579869   -1.0420219 
H    -2.6105395    1.5486919    0.0057659 
C    -4.1797138    1.5502936   -1.4790251 
C    -4.4864828    1.2486540   -2.8250563 
C    -3.5262952    0.7031216   -3.7104659 
C    -2.2244288    0.4985750   -3.2242302 
H    -1.4924459    0.0086516   -3.8761918 
C     2.3086738   -1.7118728    0.4135550 
C     2.5628221   -3.0529518    0.0742457 
H     1.9534139   -3.8627165    0.4662972 
C     3.6013306   -3.3730200   -0.8089798 
C     4.4270483   -2.3758913   -1.3449258 
H     5.2389786   -2.6323070   -2.0307821 
C     4.1805418   -1.0414871   -1.0047341 
C     3.1261807   -0.7101271   -0.1420654 
H     2.9356718    0.3421760    0.0813254 
C     2.0065203   -1.1480610    3.1704154 
C     1.7121087   -1.9445654    4.2909811 
H     0.8618682   -2.6283934    4.3020488 
C     2.4996961   -1.8537476    5.4473199 
C     3.5779176   -0.9614736    5.5157087 
H     4.1766203   -0.8777791    6.4263494 
C     3.8542734   -0.1498212    4.4087221 
C     3.0833541   -0.2466340    3.2436381 
H     3.3252923    0.4046293    2.3979419 
C    -0.3545794   -2.4019390    1.9233009 
H    -0.6269266   -2.0906795    2.9497034 
C     0.0502308   -3.8878300    1.9615381 
H    -0.7286240   -4.4465373    2.5021924 
H     0.1046816   -4.3012650    0.9441434 
H     1.0130141   -4.0533290    2.4741537 
C     2.1881388   -2.7264530    6.6457371 
F     2.2668850   -2.0201533    7.7998380 
F     0.9411188   -3.2530513    6.5732249 
F     3.0586504   -3.7551778    6.7454042 
C     4.9077575    0.9326028    4.4858457 
F     4.3184534    2.1420436    4.7182847 
F     5.7946894    0.7186370    5.4751152 
F     5.5882210    1.0501855    3.3222775 
C     3.8345622   -4.8123761   -1.2179132 
F     2.8374251   -5.6255884   -0.7936967 
F     4.9954564   -5.2903256   -0.7226917 
F     3.8996430   -4.9226419   -2.5701291 
C     4.9996739    0.0584551   -1.6398460 
F     4.4144715    0.5058225   -2.7885749 
F     5.1195637    1.1295916   -0.8174931 
F     6.2397689   -0.3561993   -1.9663482 
C     3.8711809    3.9739101   -1.2285528 
H     3.7630435    3.7811465   -0.1487409 
H     4.8949976    3.6853860   -1.5219098 
H     3.7762998    5.0577025   -1.4127130 
C     1.6312616    3.0329767   -5.6737149 
H     0.5964316    2.8846578   -6.0237115 
H     1.9447844    4.0649676   -5.9010173 
H     2.2784162    2.3527492   -6.2588084 
C    -5.2785219    1.9925203   -0.5434608 
H    -4.9032511    2.0917230    0.4873586 
H    -5.7030015    2.9653292   -0.8465677 
H    -6.1097244    1.2657819   -0.5566395 
C    -3.9131494    0.3171808   -5.1189506 
H    -3.8352051    1.1805846   -5.8064268 
H    -3.2524382   -0.4746922   -5.5086146 
H    -4.9571566   -0.0351118   -5.1512669 
O     3.6105704    4.2892537   -4.0079887 
O    -5.7916638    1.3987339   -3.2405676 
C     4.7609277    3.7067217   -4.6451582 
H     5.4230642    4.5434833   -4.9118636 
H     5.2845489    3.0154935   -3.9592067 
H     4.4786810    3.1551575   -5.5614483 
C    -6.0873001    2.6307313   -3.9140384 
H    -5.5347443    2.7130064   -4.8689461 
H    -7.1684794    2.6220374   -4.1172143 
H    -5.8356979    3.5019674   -3.2790081 
