132
Energy =
C     1.2962278   -0.5751523   -3.4229509 
C     1.2409249    0.8185915   -3.1252894 
C     2.0415234    1.3781972   -2.1028993 
H     0.4777504    1.4393896   -3.6124137 
Pd    0.6425237   -0.2482081   -1.3017489 
P     0.3210756    0.8266008    0.7705109 
P    -0.4527893   -2.2039651   -0.6114444 
H     2.2512440   -1.0845764   -3.2261899 
H     2.9381006    0.8137938   -1.8034636 
C    -1.1294927   -2.4364411   -6.4578944 
C    -1.6569068   -1.3855599   -5.6874753 
C    -0.8744476   -0.7708089   -4.7054775 
C     0.4523755   -1.1962321   -4.4644596 
C     0.9727062   -2.2454990   -5.2532355 
C     0.1906202   -2.8576715   -6.2419989 
H    -1.7443206   -2.9201980   -7.2236235 
H    -2.6870831   -1.0512235   -5.8495472 
H    -1.3058432    0.0273412   -4.0919091 
H     2.0025158   -2.5813743   -5.0880417 
H     0.6130141   -3.6691080   -6.8436992 
C     2.1650047    5.5060429   -0.9047650 
C     3.2453960    4.6496834   -0.6480154 
C     3.1814532    3.3044411   -1.0298168 
C     2.0482712    2.7948997   -1.7031694 
C     0.9748253    3.6764069   -1.9722666 
C     1.0272498    5.0123661   -1.5665814 
H     2.2082952    6.5557016   -0.5957541 
H     4.1370258    5.0257062   -0.1363631 
H     4.0158987    2.6328591   -0.7989825 
H     0.0832671    3.3128919   -2.4902556 
H     0.1774416    5.6725946   -1.7681514 
Fe    0.0487712   -0.8793687    3.9033552 
C    -0.4766354   -0.1746942    2.0780117 
C    -0.5014549   -1.6315277    2.1062895 
C    -1.4419844   -2.0236384    3.1256321 
C    -1.9833357   -0.8430271    3.7302272 
C    -1.3927603    0.2961103    3.0960611 
C     2.0161498   -1.3047976    4.2369134 
C     1.7417935    0.0677481    4.5642283 
C     0.7270536    0.0875971    5.5761838 
C     0.3729698   -1.2704960    5.8792328 
C     1.1730554   -2.1320024    5.0542732 
C    -0.8378725    2.2276351    0.5586717 
C    -1.5975403    2.2336208   -0.6251785 
C    -2.5501214    3.2280691   -0.8921112 
C    -2.7267360    4.2470099    0.0707798 
C    -1.9784801    4.2751840    1.2730195 
C    -1.0492778    3.2487497    1.5072762 
C     1.9309461    1.3933830    1.4363457 
C     2.2039482    2.6817527    1.9227273 
C     3.4641922    3.0013160    2.4599300 
C     4.4567672    1.9963915    2.4934979 
C     4.2297070    0.7065208    1.9545636 
C     2.9602306    0.4306253    1.4256969 
C     0.2187258   -2.5505541    1.1533736 
H    -1.6750544   -3.0472248    3.4222141 
H    -2.6927798   -0.8172937    4.5593359 
H    -1.6058818    1.3386743    3.3312560 
H     2.7354435   -1.6546131    3.4948043 
H     2.2063603    0.9412227    4.1052416 
H     0.2823362    0.9798509    6.0205251 
H    -0.3862489   -1.5921407    6.5945140 
H     1.1347649   -3.2230171    5.0456873 
H    -1.4194790    1.4472731   -1.3700636 
H    -0.4891942    3.2609966    2.4474773 
H     1.4539982    3.4725989    1.8530943 
H     2.7717349   -0.5597335    0.9917066 
H     1.2696619   -2.2202115    1.0761341 
H    -0.5819262   -4.5974671   -0.7617248 
H    -2.2608722   -1.0944218    0.4072303 
C    -4.5613837   -2.5637637    0.4346345 
C    -3.1298000   -3.0445831    0.1267736 
C    -2.2766006   -1.8665207   -0.3872508 
C    -2.9122437   -1.2066782   -1.6318061 
C    -4.3369945   -0.7260542   -1.3078729 
C    -5.2079675   -1.8806291   -0.7825973 
H    -4.5193341   -1.8488928    1.2800175 
H    -5.1774365   -3.4174507    0.7700343 
H    -3.1627871   -3.8466141   -0.6345832 
H    -2.6791301   -3.4788002    1.0349176 
H    -2.2830304   -0.3617615   -1.9623339 
H    -2.9419135   -1.9198553   -2.4747158 
H    -4.2790039    0.0742549   -0.5431527 
H    -4.7939009   -0.2749446   -2.2077450 
H    -5.3433833   -2.6275022   -1.5897706 
H    -6.2164871   -1.5129298   -0.5217111 
C     1.4878346   -5.4801149   -2.3776040 
C     1.2606691   -4.0785285   -1.7837764 
C    -0.2379875   -3.8389300   -1.4915375 
C    -1.0800324   -4.0153569   -2.7731423 
C    -0.8448537   -5.4115732   -3.3819824 
C     0.6440410   -5.6888441   -3.6453519 
H     1.2157975   -6.2417215   -1.6200719 
H     2.5612248   -5.6229692   -2.5978612 
H     1.6011638   -3.3087601   -2.5008433 
H     1.8682889   -3.9470037   -0.8689208 
H    -2.1526658   -3.8934758   -2.5485929 
H    -0.8133833   -3.2368673   -3.5063091 
H    -1.2429920   -6.1792935   -2.6889201 
H    -1.4229124   -5.4998040   -4.3193677 
H     1.0037418   -5.0032566   -4.4350522 
H     0.7784992   -6.7157908   -4.0294922 
C     0.2134280   -4.0130519    1.6269824 
H     0.5987462   -4.0479863    2.6606646 
H    -0.7977288   -4.4517998    1.6280357 
H     0.8621392   -4.6476968    1.0039208 
C    -3.3425743    3.2286485   -2.1781608 
H    -4.3095770    2.7061128   -2.0516499 
H    -3.5621423    4.2595180   -2.4998935 
H    -2.7932556    2.7088336   -2.9814165 
C    -2.1842440    5.3950741    2.2658670 
H    -2.3430756    6.3515084    1.7414664 
H    -3.0786988    5.2156836    2.8917467 
H    -1.3189690    5.4918259    2.9416413 
O    -3.5937911    5.2826940   -0.1946630 
C    -4.9565128    5.0815737    0.2082417 
H    -5.5002356    5.9955478   -0.0729037 
H    -5.4049408    4.2123361   -0.3091024 
H    -5.0327136    4.9287802    1.3014329 
C     3.7747271    4.3916313    2.9606497 
H     3.0496807    5.1226382    2.5677796 
H     3.7370829    4.4388384    4.0650794 
H     4.7924613    4.6922085    2.6611973 
C     5.3301465   -0.3278073    1.9555517 
H     5.3639895   -0.8706691    2.9192959 
H     5.1742108   -1.0749954    1.1598210 
H     6.3132322    0.1502603    1.8160218 
O     5.7071366    2.3123050    2.9761131 
C     5.9201809    2.0395657    4.3691700 
H     6.9521924    2.3486540    4.5915444 
H     5.2177655    2.6151128    5.0015460 
H     5.8014803    0.9620817    4.5909476 
