132
Energy =
C     1.1231854   -0.4657507   -3.4886831 
C     0.9663481    0.9168992   -3.2077352 
C     1.7605779    1.5603346   -2.2245652 
H     0.1339826    1.4630326   -3.6685774 
Pd    0.5430489   -0.1246987   -1.3136792 
P     0.3340626    0.8560735    0.7906542 
P    -0.5008744   -2.1377624   -0.6913029 
H     2.1067417   -0.9059341   -3.2654761 
H     2.7260488    1.0911589   -1.9844282 
C    -1.1252742   -2.7211166   -6.3906226 
C    -1.6940668   -1.5746273   -5.8097256 
C    -0.9751214   -0.8245931   -4.8737258 
C     0.3319023   -1.2051036   -4.4898995 
C     0.8979242   -2.3467682   -5.1015649 
C     0.1787481   -3.0992161   -6.0385064 
H    -1.6927279   -3.3082779   -7.1197676 
H    -2.7075867   -1.2662124   -6.0871470 
H    -1.4409935    0.0584149   -4.4246366 
H     1.9208875   -2.6374925   -4.8392139 
H     0.6397606   -3.9802296   -6.4971043 
C     1.6659135    5.7587270   -1.2889447 
C     2.7211510    4.9479313   -0.8446381 
C     2.7250978    3.5789578   -1.1371195 
C     1.6717777    2.9887063   -1.8734364 
C     0.5978909    3.8130977   -2.2825505 
C     0.6033107    5.1827916   -2.0039491 
H     1.6668343    6.8320506   -1.0740504 
H     3.5513723    5.3841969   -0.2796146 
H     3.5594573    2.9552004   -0.8002071 
H    -0.2511822    3.3833080   -2.8231599 
H    -0.2320355    5.8056500   -2.3404797 
Fe    0.0015876   -0.9960852    3.8250441 
C    -0.5144432   -0.1736396    2.0390863 
C    -0.6512920   -1.6245561    2.0212657 
C    -1.5997639   -1.9716280    3.0523842 
C    -2.0214474   -0.7721407    3.7152592 
C    -1.3520190    0.3350730    3.1042318 
C     1.6456716   -2.1257203    4.2869276 
C     2.0063053   -0.7426030    4.1788699 
C     1.2217757   -0.0019323    5.1270885 
C     0.3777125   -0.9317450    5.8245968 
C     0.6384956   -2.2449778    5.3038805 
C    -0.7757387    2.3135143    0.6939176 
C    -0.3479564    3.6412767    0.8713319 
C    -1.2635926    4.7065166    0.8108081 
C    -2.6138960    4.4201444    0.5148156 
C    -3.0718675    3.0953699    0.3162541 
C    -2.1338856    2.0576214    0.4121166 
C     1.9120896    1.3877039    1.5415811 
C     1.9464032    2.2416969    2.6608789 
C     3.1609939    2.5729721    3.2794111 
C     4.3537650    2.0102172    2.7619870 
C     4.3506830    1.1525989    1.6372717 
C     3.1121921    0.8515185    1.0434745 
C     0.0319131   -2.5860412    1.0743942 
H    -1.9118708   -2.9809769    3.3234980 
H    -2.7069146   -0.7187718    4.5629037 
H    -1.4659945    1.3877322    3.3675654 
H     2.0621740   -2.9426906    3.6941283 
H     2.7373745   -0.3245845    3.4862073 
H     1.2565703    1.0765326    5.2857454 
H    -0.3504412   -0.6830605    6.5987644 
H     0.1428635   -3.1670008    5.6139418 
H     0.7068147    3.8651600    1.0551439 
H    -2.4791037    1.0243402    0.2935781 
H     1.0160212    2.6483337    3.0707825 
H     3.0824893    0.1815676    0.1753575 
H     1.1111111   -2.3476087    1.0630982 
H    -0.2138121   -3.0819323   -2.8368021 
H    -2.3864831   -0.9717849    0.0564092 
C    -4.7045443   -2.4141467    0.0893018 
C    -3.2546061   -2.9295804    0.0062597 
C    -2.3469472   -1.8493525   -0.6203216 
C    -2.8617159   -1.3921913   -2.0019801 
C    -4.3255993   -0.9246451   -1.9263080 
C    -5.2321988   -1.9914479   -1.2914979 
H    -4.7401495   -1.5484341    0.7805335 
H    -5.3498840   -3.1961295    0.5280519 
H    -3.2311160   -3.8513308   -0.5997647 
H    -2.8956897   -3.1911506    1.0142429 
H    -2.2186268   -0.5748386   -2.3746928 
H    -2.7716485   -2.2216293   -2.7294981 
H    -4.3742472    0.0023771   -1.3223605 
H    -4.6832873   -0.6611738   -2.9382369 
H    -5.2715307   -2.8791926   -1.9533072 
H    -6.2670389   -1.6138904   -1.2085973 
C    -0.4717386   -5.8588576   -2.8221298 
C    -0.9634358   -4.8108012   -1.8053606 
C    -0.0728433   -3.5485608   -1.8428680 
C     1.4355704   -3.8777134   -1.7008941 
C     1.8868526   -4.9723795   -2.6858982 
C     1.0014202   -6.2236618   -2.5866121 
H    -0.5891495   -5.4524673   -3.8459723 
H    -1.1122508   -6.7567489   -2.7593815 
H    -0.9679478   -5.2580789   -0.7961816 
H    -2.0048818   -4.5347428   -2.0396225 
H     2.0291870   -2.9556021   -1.8491766 
H     1.6490733   -4.2234904   -0.6723128 
H     1.8329719   -4.5809575   -3.7177822 
H     2.9456889   -5.2230065   -2.4937837 
H     1.1127801   -6.6805826   -1.5829294 
H     1.3323832   -6.9829013   -3.3173657 
C    -0.1374157   -4.0511223    1.5129054 
H     0.1894574   -4.1464369    2.5629469 
H    -1.1834583   -4.3889674    1.4514023 
H     0.4771882   -4.7310275    0.9044020 
C    -0.8439117    6.1308915    1.0851436 
H     0.2141262    6.1804025    1.3864040 
H    -0.9731446    6.7705778    0.1939384 
H    -1.4691145    6.5691683    1.8823211 
C    -4.5328765    2.8146887    0.0505054 
H    -4.8207037    1.8235054    0.4383927 
H    -5.1661279    3.5813534    0.5256133 
H    -4.7551625    2.8226463   -1.0333525 
O    -3.5126750    5.4655666    0.4996232 
C    -3.8157594    6.0052230   -0.7929618 
H    -4.5005032    6.8498535   -0.6251814 
H    -2.9003606    6.3682805   -1.2994541 
H    -4.3093996    5.2563620   -1.4413291 
C     3.2181978    3.4976398    4.4719034 
H     3.3941428    2.9319917    5.4060228 
H     4.0509788    4.2131029    4.3698499 
H     2.2742206    4.0539091    4.5887212 
C     5.6460465    0.5998828    1.0906250 
H     5.9510432   -0.3179317    1.6275645 
H     5.5474559    0.3399385    0.0236427 
H     6.4594950    1.3342314    1.2092413 
O     5.5510969    2.3685931    3.3375587 
C     6.0469783    1.4827330    4.3529517 
H     6.9778112    1.9327336    4.7282690 
H     5.3234091    1.3816225    5.1837992 
H     6.2634697    0.4787386    3.9416360 
