122
Energy =
C    -1.7465391   -2.0534670    1.6714326 
C    -0.7545564   -1.8153502    2.6445757 
C    -0.6648895   -0.5491694    3.3037170 
H     0.0159158   -2.5753645    2.8213653 
Pd   -0.3587192   -0.2822064    1.1106001 
P     0.2617047    2.0112902    1.1659147 
P     0.2620927   -0.7390727   -1.1079093 
H    -2.5926479   -1.3494310    1.6371297 
H    -1.5960811    0.0091536    3.4649991 
C    -2.6102882   -5.7857234   -0.2545995 
C    -3.5534795   -4.7478308   -0.2437074 
C    -3.2371704   -3.5253526    0.3577610 
C    -1.9735728   -3.3146360    0.9618634 
C    -1.0224248   -4.3625896    0.9150139 
C    -1.3438173   -5.5857838    0.3220590 
H    -2.8542877   -6.7434542   -0.7237479 
H    -4.5354338   -4.8929687   -0.7038932 
H    -3.9842239   -2.7251258    0.3924321 
H    -0.0244704   -4.2250942    1.3434536 
H    -0.5962627   -6.3838189    0.2991190 
C     2.5709927    0.4803353    5.9525152 
C     2.7415717   -0.5458775    5.0077868 
C     1.6964304   -0.8852200    4.1435843 
C     0.4495209   -0.2153166    4.2099436 
C     0.2926042    0.8113040    5.1696422 
C     1.3433716    1.1569562    6.0277532 
H     3.3910076    0.7500070    6.6259945 
H     3.6978734   -1.0718083    4.9292592 
H     1.8648863   -1.6647165    3.3939668 
H    -0.6615279    1.3436222    5.2364356 
H     1.2007243    1.9584617    6.7597421 
Fe   -3.7737849    1.3124350   -2.1949171 
C    -2.0040364    0.6500875   -1.5130001 
C    -2.3178026    1.9167978   -0.8731320 
C    -3.5961082    1.7683850   -0.2170154 
H    -4.1127546    2.5638323    0.3229934 
C    -4.0477493    0.4192624   -0.3924564 
H    -4.9892654    0.0035680   -0.0280122 
C    -3.0715192   -0.2726674   -1.1836253 
H    -3.1523679   -1.3106225   -1.5081437 
C    -3.7421080    1.0646217   -4.2222361 
H    -2.9687433    0.5539512   -4.7998349 
C    -3.7657105    2.4616359   -3.8943280 
H    -3.0178871    3.1992716   -4.1914111 
C    -4.9487117    2.7162211   -3.1192526 
H    -5.2608503    3.6798576   -2.7121288 
C    -5.6566854    1.4766147   -2.9733933 
H    -6.5878628    1.3308038   -2.4230358 
C    -4.9117555    0.4559289   -3.6548132 
H    -5.1735346   -0.6026252   -3.7105387 
C    -1.5107769    3.1661698   -0.8198269 
C    -0.3197585    3.2865518   -0.0577303 
C     0.3606502    4.5257638   -0.0272453 
H     1.2626036    4.6335529    0.5834068 
C    -0.1070880    5.6311927   -0.7433054 
H     0.4447122    6.5758394   -0.7077853 
C    -1.2957807    5.5231781   -1.4781327 
H    -1.6890554    6.3847394   -2.0273258 
C    -1.9825263    4.3063263   -1.5049707 
H    -2.9130094    4.2085013   -2.0675175 
C     2.0856576   -0.5017553   -1.2489620 
C     2.7752034   -0.1607363   -2.4238077 
H     2.2440046    0.0616440   -3.3504800 
C     4.1773428   -0.1035742   -2.4181316 
C     4.9067992   -0.4700389   -1.2800853 
H     5.9997835   -0.4551224   -1.2972396 
C     4.2192674   -0.8481733   -0.1183962 
C     2.8208781   -0.8193372   -0.0871928 
H     2.2928960   -1.0545146    0.8441159 
C     0.1236362   -2.4694137   -1.7510500 
C     1.1516871   -3.3998571   -1.5024143 
H     2.0584578   -3.1071656   -0.9658993 
C     1.0409456   -4.7209594   -1.9556346 
C    -0.0901578   -5.1470242   -2.6627223 
H    -0.1717207   -6.1795691   -3.0108444 
C    -1.1214215   -4.2281388   -2.8981122 
C    -1.0213233   -2.9085627   -2.4427076 
H    -1.8508063   -2.2318701   -2.6517718 
C    -0.7730659    0.2900079   -2.3187041 
H    -1.0846394   -0.4108231   -3.1102255 
C    -0.0641090    1.4767041   -2.9934960 
H    -0.8329712    2.1552951   -3.3969338 
H     0.5578046    2.0589455   -2.2973151 
H     0.5646225    1.1372863   -3.8307932 
C     2.1209404   -5.7094990   -1.5742426 
F     2.1453606   -6.7794930   -2.3923356 
F     3.3464288   -5.1389922   -1.5833290 
F     1.9110933   -6.1715720   -0.3073793 
C    -2.3451420   -4.6437023   -3.6867623 
F    -3.4261221   -3.8836678   -3.3605241 
F    -2.1477406   -4.5002256   -5.0163432 
F    -2.6707484   -5.9364947   -3.4625528 
C     4.9073556    0.4309352   -3.6317132 
F     6.1267861   -0.1255142   -3.7737674 
F     4.2104249    0.2205428   -4.7708384 
F     5.0867114    1.7756523   -3.5145195 
C     4.9968802   -1.3578331    1.0752714 
F     4.2820776   -1.2572822    2.2261015 
F     5.3086436   -2.6654246    0.9163481 
F     6.1555962   -0.6845277    1.2501372 
C     4.9061170    2.2582898    1.1658601 
C     4.2127744    1.9112132    2.3339445 
C     2.8120404    1.8670075    2.3400502 
C     2.0885138    2.1842944    1.1717333 
C     2.7934723    2.5085967   -0.0083081 
C     4.1932268    2.5491827   -0.0079436 
H     6.0000570    2.2852853    1.1651226 
H     4.7600014    1.6603141    3.2477612 
H     2.2863458    1.5880367    3.2570957 
H     2.2519175    2.7368835   -0.9311614 
H     4.7239337    2.7952633   -0.9329461 
C    -1.5785201    4.1884168    4.8476701 
C    -2.3473391    3.3379234    4.0359537 
C    -1.7503495    2.6715340    2.9586660 
C    -0.3795275    2.8531287    2.6791691 
C     0.3810136    3.7254593    3.4784345 
C    -0.2189809    4.3820138    4.5638723 
H    -2.0412909    4.7034462    5.6956789 
H    -3.4124208    3.1923197    4.2444358 
H    -2.3505230    2.0101333    2.3216274 
H     1.4403510    3.8944601    3.2639618 
H     0.3828330    5.0497217    5.1890866 
