142
Energy =
C     1.2710680    2.9988063   -0.0277603 
C     1.7191662    2.5832836    1.2595822 
C     2.8400602    1.7327110    1.3903400 
H     1.1309807    2.8474342    2.1477787 
Pd    1.1613011    0.7476750    0.1409600 
P     1.2467981   -1.3556440    1.1520527 
P    -0.2534747    0.4672266   -1.7608114 
H     2.0243902    3.0504236   -0.8258956 
H     3.5117886    1.6667831    0.5199833 
C    -2.1708735    5.4880022   -0.7067340 
C    -2.1190678    4.6705454    0.4347724 
C    -1.0074652    3.8566935    0.6681707 
C     0.0770951    3.8356774   -0.2398790 
C     0.0108304    4.6617595   -1.3838166 
C    -1.0986341    5.4842537   -1.6108987 
H    -3.0412166    6.1275773   -0.8866307 
H    -2.9519099    4.6662609    1.1459001 
H    -0.9919956    3.2209369    1.5576643 
H     0.8412621    4.6533990   -2.0979353 
H    -1.1262078    6.1249516   -2.4983188 
C     4.6613530    0.2593500    4.9929705 
C     5.3500251    0.2307153    3.7708634 
C     4.7376098    0.7091921    2.6075217 
C     3.4284009    1.2451011    2.6444804 
C     2.7620580    1.3034365    3.8918345 
C     3.3673065    0.8044999    5.0486805 
H     5.1315708   -0.1404100    5.8966176 
H     6.3615699   -0.1829391    3.7236187 
H     5.2741992    0.6658534    1.6537772 
H     1.7677228    1.7496203    3.9702928 
H     2.8274880    0.8501437    6.0001658 
Fe   -2.4438977   -3.9861247   -0.1632540 
C    -1.0551261   -2.5460179    0.1298818 
C    -1.7083683   -2.3432682   -1.1544878 
C    -3.1250794   -2.2256360   -0.9107317 
H    -3.8779049   -2.0733296   -1.6842056 
C    -3.3537047   -2.2936845    0.4987970 
H    -4.3236706   -2.2357341    0.9950351 
C    -2.0906105   -2.4971266    1.1439892 
H    -1.9525069   -2.6513319    2.2136763 
C    -1.5882635   -5.7701912    0.3518281 
H    -0.6062607   -5.9138143    0.8080487 
C    -1.8665564   -5.7414981   -1.0558057 
H    -1.1336430   -5.8740790   -1.8538818 
C    -3.2770053   -5.5250167   -1.2251237 
H    -3.8105434   -5.4487926   -2.1744383 
C    -3.8681432   -5.4261405    0.0795273 
H    -4.9227849   -5.2435183    0.2933517 
C    -2.8244551   -5.5771307    1.0546503 
H    -2.9417912   -5.5238105    2.1391073 
C    -1.0799572   -2.1932024   -2.4925743 
C    -0.3291376   -1.0380594   -2.8561469 
C     0.2923730   -0.9975428   -4.1234600 
H     0.8750087   -0.1208718   -4.4171577 
C     0.1499379   -2.0486330   -5.0380582 
H     0.6453390   -1.9883228   -6.0123711 
C    -0.6501528   -3.1499681   -4.7108610 
H    -0.7971048   -3.9637696   -5.4284077 
C    -1.2541164   -3.2108598   -3.4501089 
H    -1.8683187   -4.0692270   -3.1683544 
C     0.2591748    1.7636640   -2.9657679 
C     1.6433940    1.9186180   -3.1940671 
H     2.3588036    1.2899547   -2.6461787 
C     2.1333523    2.8562600   -4.1150382 
C     1.1946337    3.6551680   -4.8134125 
C    -0.1969866    3.5068400   -4.6241122 
C    -0.6455709    2.5588978   -3.6854215 
H    -1.7208884    2.4661475   -3.5119414 
C    -1.9983543    0.7591284   -1.3080575 
C    -3.0357150    0.7338638   -2.2634386 
H    -2.8125482    0.5147343   -3.3137023 
C    -4.3675348    0.9438544   -1.8796357 
C    -4.6473840    1.1512158   -0.5056364 
C    -3.6366068    1.1128007    0.4790923 
C    -2.3131987    0.9297074    0.0481229 
H    -1.5087544    0.8765341    0.7901656 
C     2.9570850   -1.9351269    1.5109120 
C     3.8891275   -1.7893841    0.4674874 
H     3.5798373   -1.3516314   -0.4882220 
C     5.2239470   -2.1762385    0.6487089 
C     5.6489782   -2.7117333    1.8703554 
H     6.6949742   -2.9949024    2.0140970 
C     4.7234817   -2.8375146    2.9172338 
C     3.3875237   -2.4521878    2.7462107 
H     2.7102911   -2.5203141    3.6000380 
C     0.4039506   -1.2671404    2.7904587 
C     0.1758290   -2.3991189    3.5926730 
H     0.5495687   -3.3856128    3.3018006 
C    -0.5865931   -2.2933918    4.7654620 
C    -1.0971952   -1.0561058    5.1803234 
H    -1.6873078   -0.9819533    6.0976232 
C    -0.8483383    0.0777397    4.3928887 
C    -0.1258736   -0.0339612    3.1996223 
H     0.0194971    0.8446375    2.5652188 
C     0.3996672   -2.8648057    0.3925649 
H     0.4286356   -3.6202691    1.1974893 
C     1.1996930   -3.4100587   -0.8006045 
H     0.6067995   -4.1954462   -1.2960796 
H     1.4174261   -2.6335394   -1.5514465 
H     2.1525580   -3.8482213   -0.4624825 
C    -0.9411536   -3.5663944    5.5040504 
F    -1.3755481   -3.3289332    6.7556445 
F    -1.9320870   -4.2261634    4.8417304 
F     0.1162010   -4.4066902    5.5715727 
C    -1.3038501    1.4411890    4.8604990 
F    -1.4156545    2.3155007    3.8199184 
F    -2.4948447    1.3953571    5.4859855 
F    -0.4041482    1.9792414    5.7220415 
C     6.2137042   -1.8848148   -0.4568645 
F     7.3726015   -2.5510189   -0.3004923 
F     5.7065389   -2.1939495   -1.6726605 
F     6.5070947   -0.5518604   -0.4823702 
C     5.1941749   -3.3754783    4.2531352 
F     4.3008974   -3.1231172    5.2388304 
F     5.3882755   -4.7114464    4.2072713 
F     6.3731916   -2.8105224    4.6162795 
C     3.6105364    3.0220174   -4.3812072 
H     3.8113050    3.0233364   -5.4657531 
H     3.9831423    3.9860927   -3.9887006 
H     4.1937063    2.2152920   -3.9082018 
C    -1.1755840    4.3470751   -5.4096632 
H    -1.3989725    5.2964051   -4.8872361 
H    -0.7619147    4.6008066   -6.3989991 
H    -2.1320850    3.8160736   -5.5438123 
C    -5.5009576    0.9141489   -2.8771883 
H    -5.9633406    1.9121628   -2.9867615 
H    -5.1482272    0.5920774   -3.8702022 
H    -6.2999924    0.2322248   -2.5393712 
C    -3.9693237    1.2156184    1.9487648 
H    -3.8007995    2.2370447    2.3368546 
H    -5.0236741    0.9515942    2.1266915 
H    -3.3305070    0.5351145    2.5363091 
O     1.6712010    4.5501037   -5.7454058 
O    -5.9658634    1.2977944   -0.1329788 
C     1.8087486    5.9041096   -5.2931753 
H     2.2147239    6.4756662   -6.1408492 
H     0.8335072    6.3338655   -4.9951087 
H     2.5067301    5.9700665   -4.4363643 
C    -6.3940232    2.6476802    0.0976686 
H    -6.2726905    3.2643640   -0.8133303 
H    -7.4593189    2.5942754    0.3670500 
H    -5.8278534    3.1163643    0.9252844 
