132
Energy =
C     0.3797581   -0.3767218   -3.5267121 
C     0.3964579    1.0102422   -3.1931802 
C     1.3780509    1.5491185   -2.3287986 
H    -0.4517796    1.6380752   -3.4918226 
Pd    0.1898914   -0.0995470   -1.3057862 
P     0.1752838    0.8724344    0.8109978 
P    -0.4400455   -2.2537033   -0.6297908 
H     1.3470963   -0.8997109   -3.5426755 
H     2.3091411    0.9743868   -2.2099117 
C    -2.6852758   -2.2774418   -5.8895175 
C    -2.9633030   -1.0709392   -5.2244272 
C    -1.9781793   -0.4446464   -4.4541138 
C    -0.6805129   -0.9996633   -4.3436838 
C    -0.4116900   -2.2040124   -5.0338612 
C    -1.4042986   -2.8404626   -5.7906699 
H    -3.4613602   -2.7711048   -6.4829533 
H    -3.9606969   -0.6247256   -5.2953157 
H    -2.2286954    0.4716804   -3.9087370 
H     0.5927381   -2.6392039   -4.9819024 
H    -1.1731189   -3.7746141   -6.3131509 
C     1.8276031    5.6656803   -1.1700305 
C     2.7811463    4.7062153   -0.7986228 
C     2.6088579    3.3673863   -1.1687956 
C     1.4763075    2.9571144   -1.9103865 
C     0.5089947    3.9308732   -2.2504127 
C     0.6904065    5.2696886   -1.8928738 
H     1.9660526    6.7160878   -0.8949568 
H     3.6682811    5.0017813   -0.2290424 
H     3.3621496    2.6247809   -0.8853827 
H    -0.3894890    3.6454923   -2.8059864 
H    -0.0622614    6.0116264   -2.1788598 
Fe   -0.4269942   -0.8701246    3.8850807 
C    -0.7593028   -0.1186473    2.0252920 
C    -0.8259521   -1.5727648    2.0317362 
C    -1.8739869   -1.9486753    2.9480224 
C    -2.4308901   -0.7566869    3.5193421 
C    -1.7459884    0.3711797    2.9628229 
C     1.0681653   -2.0189531    4.6906305 
C     1.5468328   -0.6984727    4.4069547 
C     0.7389847    0.2337389    5.1458961 
C    -0.2374577   -0.5152033    5.8849799 
C    -0.0371632   -1.9078073    5.6002902 
C    -0.7747064    2.4368769    0.7446486 
C    -0.2503341    3.7112787    1.0211206 
C    -1.0653272    4.8550695    0.9540151 
C    -2.4107572    4.7034663    0.5544749 
C    -2.9616438    3.4355882    0.2484026 
C    -2.1249996    2.3154449    0.3518134 
C     1.8336091    1.1818332    1.5075327 
C     2.0465441    2.0301894    2.6093660 
C     3.3250029    2.1876101    3.1684960 
C     4.3945716    1.4463958    2.6094653 
C     4.2114410    0.5888044    1.4987878 
C     2.9196106    0.4723490    0.9606743 
C     0.0142485   -2.5035121    1.1924859 
H    -2.1716779   -2.9677351    3.1986383 
H    -3.2154260   -0.7185619    4.2771668 
H    -1.9357608    1.4219771    3.1860627 
H     1.4722410   -2.9457747    4.2799325 
H     2.3696695   -0.4462751    3.7364493 
H     0.8435313    1.3191414    5.1462644 
H    -1.0130724   -0.0981411    6.5299525 
H    -0.6342657   -2.7344182    5.9901000 
H     0.8047553    3.8354712    1.2782357 
H    -2.5409223    1.3238365    0.1431772 
H     1.2057670    2.5710127    3.0545315 
H     2.7528164   -0.1838370    0.0968847 
H     1.0612902   -2.1493810    1.2346013 
H     0.2159802   -3.2038687   -2.6625811 
H    -2.4764122   -3.4393153   -0.0076506 
C    -4.1567574   -3.4636652   -2.2817200 
C    -2.6431564   -3.2070545   -2.1691814 
C    -2.2630531   -2.6653482   -0.7722059 
C    -3.0953389   -1.3978649   -0.4533348 
C    -4.6056317   -1.6637214   -0.5632672 
C    -4.9763290   -2.2070982   -1.9510400 
H    -4.4423480   -4.2814451   -1.5906548 
H    -4.3849847   -3.8162427   -3.3037868 
H    -2.3437989   -2.4679916   -2.9309103 
H    -2.0977106   -4.1361846   -2.3977142 
H    -2.8501690   -1.0152843    0.5506303 
H    -2.8049619   -0.6127956   -1.1808239 
H    -4.9042967   -2.3931741    0.2151272 
H    -5.1580269   -0.7304181   -0.3478721 
H    -4.7689233   -1.4295942   -2.7125344 
H    -6.0574942   -2.4271301   -2.0054192 
C     1.0626512   -5.7526282   -2.5966232 
C     0.3088835   -5.0002235   -1.4825984 
C     0.5450608   -3.4808153   -1.6410022 
C     2.0567147   -3.1683402   -1.5355258 
C     2.8466303   -3.9369396   -2.6108523 
C     2.5700920   -5.4490218   -2.5477395 
H     0.6515668   -5.4522934   -3.5809606 
H     0.8868262   -6.8386958   -2.4979509 
H     0.6891366   -5.3430537   -0.5060105 
H    -0.7657927   -5.2464261   -1.5078257 
H     2.2297604   -2.0787136   -1.6325826 
H     2.4210396   -3.4569602   -0.5296192 
H     2.5561149   -3.5518399   -3.6086176 
H     3.9275022   -3.7364039   -2.4987550 
H     2.9880680   -5.8538582   -1.6048172 
H     3.0943573   -5.9660795   -3.3710157 
C    -0.0468996   -3.9564372    1.6923765 
H     0.0463883   -3.9646375    2.7912748 
H    -0.9982783   -4.4498410    1.4311318 
H     0.7766140   -4.5566202    1.2793514 
C    -0.5429982    6.2225462    1.3246542 
H    -0.5966920    6.9219957    0.4719093 
H    -1.1529918    6.6621703    2.1330801 
H     0.5066404    6.1692689    1.6543480 
C    -4.4152319    3.2971737   -0.1406683 
H    -5.0321511    4.0343480    0.3992833 
H    -4.5625940    3.4745687   -1.2228156 
H    -4.7884222    2.2835500    0.0811577 
O    -3.2161934    5.8222253    0.5406028 
C    -3.3905667    6.4538640   -0.7336512 
H    -4.0252253    7.3354462   -0.5595886 
H    -2.4195456    6.7775772   -1.1557518 
H    -3.8886186    5.7818863   -1.4581373 
C     3.5595954    3.1119531    4.3397046 
H     2.8141919    3.9238759    4.3579306 
H     3.4782240    2.5667364    5.2991327 
H     4.5696484    3.5503246    4.2924618 
C     5.3902216   -0.1525968    0.9139920 
H     5.7331268   -0.9579423    1.5892473 
H     5.1303417   -0.6119182   -0.0538181 
H     6.2462616    0.5284883    0.7725936 
O     5.6684916    1.6083973    3.1033369 
C     6.0116278    0.7960529    4.2364021 
H     7.0562973    1.0358266    4.4833865 
H     5.3666832    1.0204155    5.1064436 
H     5.9268933   -0.2806677    3.9950993 
