122
Energy =
C     0.2431727   -2.8057152    1.5997816 
C     0.6577500   -2.0313212    2.7163983 
C    -0.2300730   -1.1231731    3.3419401 
H     1.7084969   -2.0589028    3.0283569 
Pd    0.1531133   -0.5804502    1.1268302 
P     0.0664359    1.7553225    1.4478267 
P     0.2311225   -0.9082826   -1.1879593 
H    -0.8360417   -2.9935249    1.4999896 
H    -1.3029531   -1.2743723    3.1515299 
C     2.6878935   -5.5775236   -0.6029959 
C     3.2997272   -4.5886436    0.1854884 
C     2.5195955   -3.6868784    0.9147854 
C     1.1069523   -3.7490418    0.8690306 
C     0.5077707   -4.7611489    0.0846301 
C     1.2884848   -5.6657158   -0.6453040 
H     3.3005399   -6.2805840   -1.1765638 
H     4.3902877   -4.5115296    0.2284506 
H     3.0205340   -2.9199041    1.5129750 
H    -0.5847470   -4.8374361    0.0534069 
H     0.8010349   -6.4346477   -1.2514820 
C     0.5313151    1.1126762    6.9295852 
C    -0.7433308    1.1106765    6.3442374 
C    -0.9702746    0.3951286    5.1634472 
C     0.0738270   -0.3269115    4.5388573 
C     1.3580435   -0.3001478    5.1322358 
C     1.5796764    0.4054462    6.3171085 
H     0.7094992    1.6617416    7.8599097 
H    -1.5667320    1.6581185    6.8142861 
H    -1.9705561    0.3863186    4.7194220 
H     2.1913397   -0.8386967    4.6719709 
H     2.5778788    0.4076171    6.7657705 
Fe   -2.9004387    2.3060999   -2.7645254 
C    -1.5842012    1.1028396   -1.8037462 
C    -1.6367266    2.4022279   -1.1475412 
C    -3.0064577    2.6395149   -0.7613328 
H    -3.3627205    3.5343195   -0.2490211 
C    -3.7890548    1.4975131   -1.1260719 
H    -4.8634353    1.3789788   -0.9760909 
C    -2.9250235    0.5559878   -1.7756524 
H    -3.2411464   -0.3867665   -2.2239284 
C    -2.6729476    2.0319104   -4.7774927 
H    -2.0871946    1.2461625   -5.2590583 
C    -2.1926911    3.3302830   -4.3993509 
H    -1.1825642    3.7095203   -4.5648329 
C    -3.2784151    4.0449303   -3.7868552 
H    -3.2424695    5.0601404   -3.3870315 
C    -4.4295216    3.1892638   -3.7930001 
H    -5.4111899    3.4314705   -3.3819417 
C    -4.0564410    1.9461728   -4.4060378 
H    -4.7046601    1.0779682   -4.5392821 
C    -0.4989884    3.3211184   -0.8658347 
C     0.4195116    3.0751298    0.1931375 
C     1.5290249    3.9303764    0.3617113 
H     2.2440233    3.7464277    1.1674131 
C     1.7196604    5.0388900   -0.4742494 
H     2.5901201    5.6858030   -0.3253302 
C     0.7794095    5.3255622   -1.4704847 
H     0.8985390    6.2060847   -2.1101189 
C    -0.3134936    4.4701686   -1.6563143 
H    -1.0447897    4.6679319   -2.4416803 
C     1.9172009   -1.3309970   -1.7746407 
C     2.2313026   -1.7391636   -3.0837064 
H     1.4513678   -1.8641182   -3.8408417 
C     3.5665065   -1.9643850   -3.4482884 
C     4.6069446   -1.7577702   -2.5306134 
H     5.6450125   -1.9225723   -2.8289684 
C     4.2970143   -1.3219708   -1.2355491 
C     2.9630308   -1.1204811   -0.8601029 
H     2.7193646   -0.7868521    0.1543503 
C    -0.8995358   -2.3111584   -1.5761020 
C    -0.6710035   -3.3402951   -2.5079601 
H     0.2624063   -3.4071876   -3.0693547 
C    -1.6388893   -4.3366314   -2.7010539 
C    -2.8448018   -4.3255289   -1.9810203 
H    -3.5954323   -5.1046241   -2.1383852 
C    -3.0628991   -3.3080385   -1.0451768 
C    -2.0952933   -2.3162421   -0.8391851 
H    -2.2721970   -1.5391863   -0.0873690 
C    -0.3863529    0.4180837   -2.4129244 
H    -0.7434496   -0.1692599   -3.2779649 
C     0.7539895    1.3444552   -2.8700882 
H     0.3159822    2.1987622   -3.4104166 
H     1.3375036    1.7437821   -2.0253874 
H     1.4445771    0.8173716   -3.5467368 
C    -1.3607644   -5.4905760   -3.6423883 
F    -0.3263657   -5.2280377   -4.4706976 
F    -1.0465616   -6.6146624   -2.9437022 
F    -2.4410534   -5.7827775   -4.3965870 
C    -4.3385076   -3.2165720   -0.2400190 
F    -5.0706404   -2.1361660   -0.6170635 
F    -5.1130686   -4.3076614   -0.3679584 
F    -4.0569890   -3.0518563    1.0826246 
C     3.8536793   -2.3902833   -4.8739828 
F     5.1398500   -2.7506574   -5.0490237 
F     3.0696856   -3.4379480   -5.2264658 
F     3.5806475   -1.3821876   -5.7381198 
C     5.3801942   -1.0867775   -0.2060271 
F     5.1659010    0.0769255    0.4675174 
F     5.3944865   -2.0732145    0.7331997 
F     6.6063638   -1.0302061   -0.7530490 
C     3.5380435    2.6102017    4.4244807 
C     3.7223860    1.7902729    3.3002448 
C     2.6425338    1.5235571    2.4496959 
C     1.3706814    2.0833270    2.7049156 
C     1.1883048    2.8880564    3.8434348 
C     2.2712748    3.1467321    4.6967998 
H     4.3789327    2.8228325    5.0926694 
H     4.7036990    1.3597446    3.0760257 
H     2.7982275    0.8989347    1.5634864 
H     0.2041611    3.3018572    4.0784499 
H     2.1176618    3.7675917    5.5851748 
C    -4.0709449    3.1591551    3.0355765 
C    -3.0292253    4.0905913    2.8922552 
C    -1.7742482    3.6782606    2.4248306 
C    -1.5471199    2.3197989    2.1184859 
C    -2.6027510    1.3973493    2.2423214 
C    -3.8596843    1.8132831    2.7011576 
H    -5.0521393    3.4871955    3.3941368 
H    -3.1980331    5.1446310    3.1360185 
H    -0.9773389    4.4154645    2.2785555 
H    -2.4429341    0.3546568    1.9465523 
H    -4.6761941    1.0886484    2.7845591 
