122
Energy =
C     1.5879430   -2.7091731    1.7995778 
C     2.4519801   -1.6584015    2.1597456 
C     2.0428702   -0.6561618    3.1028640 
H     3.3939751   -1.5333427    1.6117050 
Pd    0.6706958   -0.5937420    1.3688823 
P    -0.5521796    1.3114000    2.0129526 
P     0.1185664   -0.8421147   -0.8964993 
H     0.7072546   -2.8794030    2.4397279 
H     1.3831493   -0.9697951    3.9225741 
C     2.3133163   -5.8710118   -1.0129348 
C     1.0521276   -5.7167809   -0.4167725 
C     0.8395672   -4.6924377    0.5106606 
C     1.8722919   -3.7817308    0.8410281 
C     3.1441696   -3.9613063    0.2467456 
C     3.3590157   -4.9998949   -0.6642093 
H     2.4861442   -6.6671406   -1.7434201 
H     0.2338467   -6.4004333   -0.6645866 
H    -0.1385992   -4.6005650    0.9914758 
H     3.9738853   -3.2973668    0.5037254 
H     4.3473732   -5.1296847   -1.1151548 
C     4.3036011    2.9296447    3.8738251 
C     4.4889465    2.2338334    2.6667833 
C     3.7625892    1.0677070    2.4084652 
C     2.8386062    0.5609008    3.3565059 
C     2.6684221    1.2688210    4.5692100 
C     3.3908918    2.4417163    4.8221478 
H     4.8713896    3.8439672    4.0747503 
H     5.1986502    2.6035479    1.9196647 
H     3.9188690    0.5521103    1.4561795 
H     1.9601195    0.8954187    5.3155026 
H     3.2406502    2.9744750    5.7665913 
Fe   -2.3355242    2.8645750   -2.6199026 
C    -1.4616748    1.4326915   -1.4851547 
C    -1.6017073    2.6651243   -0.7161006 
C    -3.0008001    3.0133185   -0.7084330 
H    -3.4195610    3.8911779   -0.2158093 
C    -3.7284126    2.0042555   -1.4133697 
H    -4.8058570    1.9910677   -1.5833868 
C    -2.7908421    1.0371151   -1.8994512 
H    -3.0422705    0.1752717   -2.5182907 
C    -1.4552597    2.8371375   -4.4665513 
H    -0.7282156    2.1078685   -4.8304480 
C    -1.1497666    4.0657994   -3.7905932 
H    -0.1486258    4.4409383   -3.5697876 
C    -2.3892102    4.7221674   -3.4790500 
H    -2.5034044    5.6762161   -2.9610164 
C    -3.4587463    3.9010697   -3.9714009 
H    -4.5254094    4.1121200   -3.8763529 
C    -2.8821946    2.7356488   -4.5809734 
H    -3.4322496    1.9041888   -5.0263201 
C    -0.5396894    3.3902019    0.0332323 
C     0.0427431    2.8522864    1.2147099 
C     1.1887382    3.4649087    1.7699904 
H     1.6866894    3.0113896    2.6319181 
C     1.6950807    4.6552490    1.2362239 
H     2.5845188    5.1110746    1.6825806 
C     1.0479649    5.2568661    0.1474710 
H     1.4135539    6.2055273   -0.2588069 
C    -0.0480490    4.6197304   -0.4468906 
H    -0.5286159    5.0482636   -1.3297529 
C     1.6310116   -1.5333505   -1.6998287 
C     1.6370980   -2.5797644   -2.6391947 
H     0.7106942   -3.0768711   -2.9369676 
C     2.8508486   -3.0274629   -3.1801834 
C     4.0706883   -2.4481901   -2.7982890 
H     5.0141328   -2.8134841   -3.2121584 
C     4.0637248   -1.4236511   -1.8445466 
C     2.8563800   -0.9711667   -1.2990054 
H     2.8717741   -0.1761774   -0.5462629 
C    -1.2254912   -1.9763877   -1.4315652 
C    -1.8344388   -2.7948593   -0.4679953 
H    -1.4836462   -2.7602127    0.5681041 
C    -2.8998634   -3.6373183   -0.8168733 
C    -3.3834843   -3.6640155   -2.1314519 
H    -4.2262278   -4.3051902   -2.4003790 
C    -2.7737938   -2.8499240   -3.0968808 
C    -1.6936717   -2.0244088   -2.7572759 
H    -1.2369738   -1.4091676   -3.5386486 
C    -0.1893906    0.7351364   -1.9107152 
H    -0.3524701    0.3623477   -2.9373550 
C     1.0638417    1.6283451   -1.9261418 
H     0.7921794    2.5944331   -2.3790404 
H     1.4492227    1.8314172   -0.9129451 
H     1.8680905    1.1751140   -2.5261033 
C    -3.5328533   -4.4761472    0.2712687 
F    -4.5181136   -5.2647535   -0.1910692 
F    -2.6069736   -5.2723156    0.8713912 
F    -4.0516512   -3.6831171    1.2457677 
C    -3.3115929   -2.7706720   -4.5101653 
F    -3.9220568   -1.5690366   -4.7095165 
F    -2.3133301   -2.8590731   -5.4187209 
F    -4.2110407   -3.7359329   -4.7725301 
C     2.8587410   -4.1614806   -4.1852620 
F     3.8779139   -5.0225046   -3.9395129 
F     1.7063316   -4.8712765   -4.1470239 
F     3.0158517   -3.7037728   -5.4463246 
C     5.3480036   -0.8516136   -1.2914408 
F     5.2730470    0.4947974   -1.1507067 
F     5.5855830   -1.3521776   -0.0380602 
F     6.4178102   -1.1402793   -2.0498032 
C    -0.6567655    1.8456764    6.6448446 
C    -0.8542857    0.5956817    6.0348267 
C    -0.7838743    0.4796849    4.6418950 
C    -0.5120199    1.6082564    3.8386557 
C    -0.3504052    2.8635443    4.4536247 
C    -0.4153515    2.9755503    5.8514978 
H    -0.7035465    1.9382458    7.7347084 
H    -1.0651450   -0.2884118    6.6452404 
H    -0.9541178   -0.4949167    4.1675456 
H    -0.1738999    3.7594875    3.8521346 
H    -0.2786714    3.9561199    6.3192154 
C    -5.1760157    0.8994094    1.7822061 
C    -4.3582010   -0.1296036    1.2977277 
C    -2.9638444    0.0204824    1.3183984 
C    -2.3801649    1.1906773    1.8265731 
C    -3.2064009    2.2181996    2.3292508 
C    -4.5974725    2.0737299    2.2952311 
H    -6.2650868    0.7863324    1.7716431 
H    -4.7954750   -1.0559077    0.9129072 
H    -2.3219626   -0.7778874    0.9411234 
H    -2.7613343    3.1272738    2.7478355 
H    -5.2351961    2.8762349    2.6803306 
