124
Energy =
C    -1.3170341    0.0424253   -2.9008586 
C    -0.2540125   -0.8934539   -3.0143508 
C    -0.2900118   -2.1412998   -2.3377224 
H     0.6664483   -0.5901747   -3.5297664 
Pd   -0.4115321   -0.4148605   -0.8850334 
P     0.4079560   -1.4943283    1.0033609 
P    -0.7241582    1.6814854    0.1800522 
H    -2.3168066   -0.3534608   -2.6638949 
H    -1.2801911   -2.5690647   -2.1209415 
C    -1.3051098    3.7872274   -5.0085264 
C    -2.5047126    3.0924156   -4.7937366 
C    -2.5046811    1.8964453   -4.0658950 
C    -1.2969550    1.3536050   -3.5737463 
C    -0.0959760    2.0686867   -3.7885876 
C    -0.1018630    3.2771309   -4.4915385 
H    -1.3071328    4.7264518   -5.5711188 
H    -3.4455926    3.4863638   -5.1905288 
H    -3.4451248    1.3611354   -3.8956302 
H     0.8459835    1.6898099   -3.3805932 
H     0.8354771    3.8236193   -4.6376940 
C     2.9118843   -5.0169396   -2.3775970 
C     1.5777883   -5.4328813   -2.2605062 
C     0.5420830   -4.4894126   -2.2379509 
C     0.8219387   -3.1104504   -2.3545062 
C     2.1712066   -2.7069513   -2.4900146 
C     3.2058717   -3.6476383   -2.4914965 
H     3.7195140   -5.7547634   -2.3652034 
H     1.3447727   -6.4981938   -2.1688201 
H    -0.4963573   -4.8206635   -2.1280764 
H     2.4150261   -1.6425907   -2.5865592 
H     4.2440766   -3.3101447   -2.5715006 
Fe   -2.7254058   -1.0446373    2.2033099 
C    -0.6891354   -1.0758027    2.3763695 
C    -1.1972154    0.2704520    2.6201897 
C    -2.1101924    0.1690676    3.7288185 
C    -2.1757424   -1.1937221    4.1625994 
C    -1.3039888   -1.9689069    3.3343282 
C    -3.9419046   -2.5789071    1.5735169 
C    -4.6733285   -1.6275885    2.3581378 
C    -4.5850288   -0.3514587    1.7087416 
C    -3.7961730   -0.5105009    0.5194742 
C    -3.4053205   -1.8858912    0.4376764 
C     2.1166034   -1.0676955    1.5269382 
C     2.4491565   -0.8353496    2.8687952 
C     3.7708407   -0.5039490    3.2097055 
C     4.7749304   -0.4708322    2.2344120 
C     4.4434612   -0.7530739    0.8980297 
C     3.1175753   -1.0163240    0.5402832 
C     0.4876710   -3.3374102    1.0023537 
C    -0.7105542   -4.0589129    0.8992205 
C    -0.6984364   -5.4600758    0.8632773 
C     0.5093472   -6.1630614    0.9113299 
C     1.7095987   -5.4404198    0.9910248 
C     1.7067006   -4.0409865    1.0406463 
C    -0.6955275    1.5917240    2.0775754 
H    -2.6611764    1.0072344    4.1608149 
H    -2.8014562   -1.5827421    4.9676730 
H    -1.1373504   -3.0445221    3.4058925 
H    -3.8151848   -3.6373678    1.8058180 
H    -5.1922621   -1.8354022    3.2954245 
H    -5.0415910    0.5731184    2.0627211 
H    -3.5575710    0.2669364   -0.2066806 
H    -2.8148192   -2.3282973   -0.3661663 
H     1.6814990   -0.8859441    3.6474448 
H     2.8656366   -1.2128404   -0.5042087 
H    -1.6577310   -3.5211147    0.8659248 
H     2.6626115   -3.5161914    1.0921933 
H    -1.4146169    2.3620576    2.3997135 
C     0.6842382    1.9783759    2.6611329 
H     0.7184800    1.7290712    3.7354575 
H     1.5114787    1.4543637    2.1599600 
H     0.8619069    3.0587095    2.5461576 
C     4.0647952   -0.1308733    4.6479956 
F     3.4821816    1.0593955    4.9503614 
F     3.5584904   -1.0473279    5.5041332 
F     5.3854422   -0.0146296    4.8871214 
C     5.5385128   -0.8301742   -0.1437071 
F     5.0325555   -0.8268054   -1.4078763 
F     6.3977447    0.2104480   -0.0445276 
F     6.2591024   -1.9643052   -0.0084380 
C    -2.0220922   -6.1721262    0.7079960 
F    -1.8895353   -7.5070244    0.6301269 
F    -2.8546877   -5.8962481    1.7490823 
F    -2.6600340   -5.7472357   -0.4178941 
C     3.0230084   -6.1951773    1.0261100 
F     3.0124358   -7.2299484    0.1493304 
F     4.0682219   -5.3967699    0.7052724 
F     3.2634332   -6.7106945    2.2516320 
H     5.8038730   -0.2297308    2.5142741 
H     0.5181619   -7.2547164    0.8597480 
C    -4.4136449    4.4161624   -0.5006081 
C    -4.4207105    3.5142977    0.5770760 
C    -3.3001106    2.6834268    0.7556356 
C    -2.2078042    2.7293992   -0.1331172 
C    -2.2414472    3.6237922   -1.2243947 
C    -3.3348012    4.4920414   -1.4023027 
H    -5.2655619    5.0942732   -0.6329471 
H    -3.2825623    1.9934329    1.6042578 
H    -1.3935784    3.6849968   -1.9133743 
C    -5.6009558    3.4324789    1.5204237 
H    -5.2896434    3.1182555    2.5313932 
H    -6.1178315    4.4025739    1.6066718 
H    -6.3429353    2.6972826    1.1548287 
C    -3.3533385    5.5095212   -2.5208729 
H    -4.0993703    5.2366048   -3.2893213 
H    -3.6305189    6.5074950   -2.1382943 
H    -2.3730505    5.5834280   -3.0163696 
C     2.8851421    4.3732982   -0.8986005 
C     2.9543364    2.9928668   -1.1572526 
C     1.8374760    2.2005596   -0.8285272 
C     0.6857759    2.7735535   -0.2607909 
C     0.6498357    4.1588061   -0.0025127 
C     1.7490481    4.9746633   -0.3193792 
H     3.7430060    5.0049550   -1.1604156 
H     1.8536166    1.1213318   -1.0303256 
H    -0.2454305    4.6117609    0.4374280 
C     4.1978184    2.3768863   -1.7573282 
H     3.9789105    1.4175160   -2.2529025 
H     4.6641766    3.0517116   -2.4946593 
H     4.9527404    2.1751286   -0.9757559 
C     1.7227751    6.4617114   -0.0438849 
H     2.4370873    6.7240988    0.7580360 
H     2.0158077    7.0368532   -0.9397856 
H     0.7213346    6.7980680    0.2701860 
