124
Energy =
C     1.9072671    2.5797961   -1.1946148 
C     0.6967094    3.2053286   -0.8491692 
C     0.1806524    3.1483951    0.4802185 
H     0.0997612    3.6836018   -1.6354852 
Pd    0.2883197    1.0664841   -0.3685178 
P    -0.8230944   -0.0369509    1.3775855 
P     0.7094392   -0.8614564   -1.6704047 
H     2.5760050    2.2957249   -0.3678745 
H     0.9220673    3.0452123    1.2832379 
C     3.9219059    2.8154811   -4.9874450 
C     4.6335082    2.5466669   -3.8089507 
C     3.9575605    2.4688886   -2.5855874 
C     2.5584214    2.6617212   -2.5101379 
C     1.8593098    2.9560600   -3.7045202 
C     2.5331345    3.0254367   -4.9275293 
H     4.4454103    2.8708963   -5.9472140 
H     5.7175281    2.3968049   -3.8420417 
H     4.5168246    2.2665670   -1.6656266 
H     0.7787956    3.1216745   -3.6768731 
H     1.9733348    3.2463912   -5.8422253 
C    -3.3177220    5.3823822    1.6333200 
C    -3.2089829    4.8825403    0.3243818 
C    -2.0978714    4.1205418   -0.0512075 
C    -1.0544519    3.8593594    0.8681733 
C    -1.1862195    4.3558330    2.1859465 
C    -2.3059822    5.1072316    2.5652937 
H    -4.1895880    5.9766388    1.9246124 
H    -4.0020114    5.0803231   -0.4041600 
H    -2.0400695    3.7206077   -1.0696030 
H    -0.3866426    4.1678416    2.9114111 
H    -2.3819480    5.4905680    3.5881254 
Fe   -1.2770662   -3.6211860    1.6898939 
C    -1.4028843   -1.7167629    0.9411826 
C    -0.7674460   -2.6182900   -0.0148369 
C    -1.6992541   -3.6847577   -0.2890342 
C    -2.8924916   -3.4631060    0.4669034 
C    -2.7127692   -2.2712591    1.2342966 
C    -0.3831075   -3.6881800    3.5400514 
C    -1.6964002   -4.2600313    3.5877910 
C    -1.7346453   -5.3519892    2.6561425 
C    -0.4447746   -5.4505704    2.0312196 
C     0.3915404   -4.4194270    2.5757513 
C     0.5856603   -2.4682490   -0.6737817 
H    -1.5216032   -4.5378704   -0.9445261 
H    -3.7687405   -4.1131210    0.4905243 
H    -3.4469654   -1.8582728    1.9229168 
H    -0.0326319   -2.8505531    4.1431053 
H    -2.5227632   -3.9204509    4.2147165 
H    -2.5990300   -5.9832648    2.4426433 
H    -0.1578132   -6.1775613    1.2690869 
H     1.4363991   -4.2383291    2.3160816 
H     1.3312366   -2.2775822    0.1157660 
C     1.0002496   -3.7405599   -1.4314771 
H     0.8884332   -4.6100218   -0.7603883 
H     0.3780401   -3.9155669   -2.3251583 
H     2.0522328   -3.6960331   -1.7490507 
H    -1.8977997    1.8844947    2.2214219 
C    -3.9901378    1.2232402    3.9410659 
C    -2.8009300    0.3726852    3.4559429 
C    -2.3028539    0.8649193    2.0756206 
C    -3.4298155    0.9921156    1.0244059 
C    -4.6195291    1.8024234    1.5668007 
C    -5.1250691    1.2455719    2.9059802 
H    -3.6430811    2.2597754    4.1214612 
H    -4.3484899    0.8332819    4.9106869 
H    -3.1052598   -0.6879203    3.4111261 
H    -1.9836846    0.4260195    4.1959628 
H    -3.0195701    1.4759365    0.1198324 
H    -3.7811804   -0.0077956    0.7147656 
H    -4.3051025    2.8518455    1.7086391 
H    -5.4287585    1.8111452    0.8144000 
H    -5.5138373    0.2171465    2.7625627 
H    -5.9697566    1.8524449    3.2778392 
H    -0.2325612   -0.8155773    3.5651896 
C     1.6544070    0.9199076    4.6844780 
C     0.7307369    1.1301117    3.4701740 
C     0.3450369   -0.2195601    2.8333927 
C     1.6067129   -1.0100623    2.4411809 
C     2.5559911   -1.2026953    3.6369177 
C     2.9191623    0.1389668    4.2926772 
H     1.1035848    0.3649197    5.4690644 
H     1.9225661    1.8992300    5.1197389 
H     1.2664095    1.7350429    2.7153054 
H    -0.1646567    1.7042225    3.7659128 
H     1.3033326   -1.9871494    2.0306657 
H     2.1312009   -0.4591016    1.6346843 
H     2.0692003   -1.8549200    4.3881033 
H     3.4661341   -1.7346465    3.3053900 
H     3.5134171    0.7449001    3.5797461 
H     3.5596550   -0.0262818    5.1769515 
H     0.1638888   -1.8293884   -3.7901430 
C    -1.3621870    1.2970907   -3.3803587 
C    -0.4269283    0.2501271   -4.0126780 
C    -0.3766133   -1.0670913   -3.2015164 
C    -1.8105369   -1.5829605   -2.9590873 
C    -2.7117756   -0.5414386   -2.2858420 
C    -2.7731363    0.7498428   -3.1153197 
H    -1.4067100    2.1959475   -4.0220088 
H    -0.9264888    1.6177944   -2.4071465 
H     0.5854487    0.6709795   -4.1488709 
H    -0.7974633   -0.0036033   -5.0248637 
H    -2.2258210   -1.8295170   -3.9567222 
H    -1.8039581   -2.5219483   -2.3872415 
H    -3.7226776   -0.9578291   -2.1309128 
H    -2.3089708   -0.3139033   -1.2802701 
H    -3.3831440    1.5131918   -2.5982019 
H    -3.2768328    0.5422296   -4.0797370 
H     2.5840503    0.2263399   -2.6413943 
C     4.2138792   -1.4697243   -4.0866544 
C     2.7520208   -1.6594379   -3.6370955 
C     2.4647209   -0.8359216   -2.3603694 
C     3.4845526   -1.1226100   -1.2317679 
C     4.9400248   -0.9856172   -1.7166200 
C     5.2006344   -1.8370500   -2.9682491 
H     4.3663285   -0.4124110   -4.3785610 
H     4.4003413   -2.0807570   -4.9878216 
H     2.5630642   -2.7341655   -3.4664087 
H     2.0799888   -1.3414187   -4.4527647 
H     3.2957873   -0.4374924   -0.3830311 
H     3.3426720   -2.1500003   -0.8463580 
H     5.1478950    0.0727599   -1.9554672 
H     5.6262412   -1.2694916   -0.8983839 
H     5.0901775   -2.9109657   -2.7168851 
H     6.2412772   -1.6997922   -3.3122716 
