112
Energy =
C     2.5124583    2.0688669   -1.1269432 
C     1.6910238    1.9479047   -2.2662097 
C     0.3597666    2.4776936   -2.2824991 
H     2.0316662    1.3399564   -3.1147193 
Pd    0.5417517    0.9414201   -0.6879537 
P    -1.6547502    0.5470519    0.0204497 
P     1.4122771   -0.7894955    0.6578871 
H     2.2329698    2.8392313   -0.3914625 
H     0.1737380    3.3915244   -1.7000515 
C     6.5850508    0.7619569   -0.7177015 
C     6.0750784    1.7918051    0.0857839 
C     4.7373482    2.1843246   -0.0424552 
C     3.8924399    1.5802115   -1.0018273 
C     4.4260070    0.5534350   -1.8162020 
C     5.7524334    0.1409625   -1.6660952 
H     7.6274408    0.4445071   -0.6110159 
H     6.7163857    2.2828556    0.8246561 
H     4.3372599    2.9728266    0.6040542 
H     3.7978185    0.0645458   -2.5649183 
H     6.1425648   -0.6654363   -2.2954573 
C    -2.1458568    1.9187348   -5.7468782 
C    -1.3332958    0.8670438   -5.2903561 
C    -0.5259075    1.0419749   -4.1617255 
C    -0.5123652    2.2710767   -3.4607798 
C    -1.3332062    3.3182101   -3.9316177 
C    -2.1383860    3.1448114   -5.0657202 
H    -2.7790948    1.7824632   -6.6293244 
H    -1.3375700   -0.0952646   -5.8128668 
H     0.0799786    0.2054691   -3.7940819 
H    -1.3295044    4.2818679   -3.4100383 
H    -2.7609814    3.9726136   -5.4204845 
Fe   -0.4292241   -3.7327295    1.6123865 
C     0.1787448   -1.7910488    1.5686196 
C    -1.2411637   -1.9053703    1.2442783 
C    -1.8875507   -2.5268540    2.3696253 
C    -0.9009958   -2.8173178    3.3688144 
C     0.3719663   -2.3784310    2.8799133 
C    -0.0811224   -5.6515670    2.2014075 
C    -1.3152176   -5.5676813    1.4730691 
C    -1.0222903   -5.0628087    0.1629993 
C     0.3896125   -4.8261063    0.0812906 
C     0.9726855   -5.1926452    1.3420884 
C     2.5308369   -0.2025765    1.9900347 
C     1.9492006    0.3782798    3.1389327 
C     2.7538057    0.9029480    4.1554573 
C     4.1532983    0.8528703    4.0410498 
C     4.7360444    0.2901186    2.8985798 
C     3.9338329   -0.2255320    1.8683068 
C     2.3933409   -1.9707371   -0.3532520 
C     2.2356368   -1.9738902   -1.7523744 
C     2.9130339   -2.9140804   -2.5424467 
C     3.7668324   -3.8487766   -1.9386757 
C     3.9334432   -3.8474070   -0.5437490 
C     3.2447715   -2.9197517    0.2480770 
C    -1.9275997   -1.3243837    0.0353700 
H    -2.9511685   -2.7672457    2.4287558 
H    -1.0800176   -3.3248033    4.3184447 
H     1.3252893   -2.4519005    3.4055334 
H     0.0317046   -5.9822774    3.2355345 
H    -2.3048581   -5.8241338    1.8556490 
H    -1.7517178   -4.8901701   -0.6288376 
H     0.9285721   -4.4305122   -0.7811563 
H     2.0290168   -5.1314424    1.6040350 
H     0.8607679    0.4039226    3.2442107 
H     4.4087885   -0.6370379    0.9727845 
H     1.5766575   -1.2316140   -2.2189182 
H     3.3658958   -2.9353172    1.3358767 
H     2.2872346    1.3457855    5.0416478 
H     5.8251605    0.2565248    2.7942475 
H     2.7787891   -2.9119507   -3.6291451 
H     4.5969192   -4.5788225   -0.0706985 
H     4.7847205    1.2539771    4.8404869 
H     4.3010456   -4.5809513   -2.5528353 
H    -3.0157332   -1.4795719    0.1446377 
C    -1.4406193   -1.9298301   -1.3009499 
H    -1.5982620   -1.2527834   -2.1561685 
H    -0.3658299   -2.1606253   -1.2407336 
H    -1.9718193   -2.8731388   -1.5025460 
H    -4.0120473    0.8806212   -0.0257985 
H    -1.1329888    0.2779912    2.3171373 
C    -4.9620715    1.1737070   -2.5975593 
C    -3.6004275    0.6296312   -2.1227119 
C    -3.2343570    1.2154492   -0.7419444 
C    -3.2418959    2.7586869   -0.7754334 
C    -4.6024481    3.2947267   -1.2591189 
C    -4.9898863    2.7090172   -2.6251883 
H    -5.7557582    0.8032074   -1.9185249 
H    -5.1862425    0.7655084   -3.5994519 
H    -2.8186755    0.8908329   -2.8572046 
H    -3.6518943   -0.4716873   -2.0762720 
H    -3.0183349    3.1696388    0.2235040 
H    -2.4401518    3.1029049   -1.4531228 
H    -5.3768535    3.0330650   -0.5109039 
H    -4.5684724    4.3982966   -1.3041245 
H    -4.2762405    3.0672245   -3.3899740 
H    -5.9901248    3.0684733   -2.9259346 
C    -3.0937041    1.2603296    3.9663554 
C    -3.1574630    0.9822084    2.4529633 
C    -1.7475083    1.0594642    1.8300295 
C    -1.0629373    2.4164050    2.1192321 
C    -1.0436729    2.7127588    3.6309757 
C    -2.4482853    2.6263622    4.2500757 
H    -2.5036234    0.4606847    4.4562805 
H    -4.1106725    1.2145852    4.3952102 
H    -3.8194300    1.7328262    1.9812099 
H    -3.6060935   -0.0106885    2.2664531 
H    -0.0317280    2.4045774    1.7152621 
H    -1.5962670    3.2319185    1.5975405 
H    -0.3836758    1.9816481    4.1373692 
H    -0.5996200    3.7089368    3.8067837 
H    -3.0867618    3.4262291    3.8255649 
H    -2.3966843    2.8087073    5.3382169 
