110
Energy =
C     0.4769052    0.7248465   -2.9562647 
C    -0.8814570    0.3284801   -2.9023899 
C    -1.8336545    1.0999461   -2.1965750 
H    -1.1867453   -0.6210981   -3.3573134 
Pd   -0.1703826    0.2496440   -0.7913601 
P    -1.4860340    0.2693375    1.1887956 
P     1.9563537   -0.3593651    0.0631906 
H     0.6767246    1.7813310   -2.7316446 
H    -1.5507430    2.1348366   -1.9591958 
C     3.6269255   -1.1501052   -5.2109597 
C     3.7762078    0.1535303   -4.7131879 
C     2.7357744    0.7528819   -3.9939945 
C     1.5244850    0.0619934   -3.7480532 
C     1.3796577   -1.2392408   -4.2843398 
C     2.4200439   -1.8381912   -5.0020232 
H     4.4398693   -1.6233340   -5.7708307 
H     4.7045679    0.7065784   -4.8888483 
H     2.8576166    1.7723920   -3.6141562 
H     0.4480568   -1.7938145   -4.1363481 
H     2.2895289   -2.8488893   -5.4020299 
C    -6.0949342    0.4730821   -2.2298736 
C    -5.5506145    1.6900523   -1.7934541 
C    -4.1626218    1.8758874   -1.7888176 
C    -3.2842571    0.8465851   -2.2039960 
C    -3.8531583   -0.3663168   -2.6613171 
C    -5.2394027   -0.5489562   -2.6749497 
H    -7.1795914    0.3255890   -2.2386932 
H    -6.2086508    2.5020514   -1.4673659 
H    -3.7480795    2.8410175   -1.4774619 
H    -3.2068200   -1.1811187   -3.0028999 
H    -5.6569925   -1.4958767   -3.0321130 
Fe    0.9514112   -0.7910153    3.2870076 
C     1.9387907   -1.3075757    1.6229817 
C     0.9422341   -2.3020996    1.9641379 
H     0.0928124   -2.5821740    1.3434382 
C     1.2401992   -2.8186948    3.2666703 
H     0.6520726   -3.5607079    3.8092780 
C     2.4163211   -2.1579376    3.7483187 
H     2.8857234   -2.3089189    4.7219434 
C     2.8553783   -1.2327039    2.7456602 
C    -0.6353429    0.3249970    2.8068112 
C     0.5024643    1.1692146    3.1084864 
H     0.9662172    1.8756576    2.4222950 
C     0.9277652    0.9010694    4.4495871 
H     1.7800595    1.3611215    4.9524423 
C     0.0594076   -0.0957098    5.0003546 
H     0.1333240   -0.5337249    5.9972465 
C    -0.9080786   -0.4499133    4.0035541 
H     3.7268381   -0.5826856    2.8341667 
H    -1.6957287   -1.1937686    4.1302170 
C    -2.7630112   -1.1063156    1.4609941 
C    -4.0252524   -0.3624837    2.0039557 
C    -3.6890220    1.0667424    2.4575241 
C    -2.7261997    1.6677408    1.4151076 
H    -2.3195108   -1.7545346    2.2384023 
H    -4.7548369   -0.2938511    1.1761750 
H    -4.5047461   -0.9421369    2.8104875 
H    -4.6108164    1.6685477    2.5378888 
H    -3.2090743    1.0737510    3.4538030 
H    -3.2553490    1.7290778    0.4458580 
C     3.1686725    1.0590124    0.4345589 
C     4.3862002    0.7926885   -0.4811108 
C     4.5488566   -0.7259325   -0.6150041 
C     3.1766867   -1.2893473   -1.0395257 
H     3.4707897    0.8371805    1.4716064 
H     4.2090387    1.2211577   -1.4828388 
H     5.2915052    1.2759939   -0.0734874 
H     5.3194084   -0.9942540   -1.3605052 
H     4.8629428   -1.1610057    0.3517533 
H     2.9453030   -0.8683545   -2.0336804 
C     3.0796139   -2.8327623   -1.1833119 
H     3.6450603   -3.0452827   -2.1126455 
C     2.6015992    2.5064285    0.4459612 
H     1.5505290    2.4348477    0.7797473 
C    -3.1056569   -1.9910038    0.2351163 
C    -2.1266901    3.0496332    1.7596968 
H    -1.5281521    2.9326513    2.6838841 
H    -3.5269318   -1.3183788   -0.5321757 
C     3.7471771   -3.6393159   -0.0549073 
H     3.6619506   -4.7185540   -0.2716860 
H     4.8215425   -3.4078055    0.0389011 
H     3.2685886   -3.4556262    0.9213691 
C     1.6346688   -3.3054899   -1.4146937 
H     1.6171874   -4.3425197   -1.7920051 
H     1.0587831   -3.2875993   -0.4756950 
H     1.1130182   -2.6654883   -2.1448435 
C     2.5715127    3.1932261   -0.9251027 
H     3.5865974    3.4158356   -1.2974384 
H     2.0632563    2.5632124   -1.6708461 
H     2.0219874    4.1480630   -0.8605492 
C     3.3617639    3.3666174    1.4727207 
H     2.9460951    4.3884299    1.5154491 
H     3.3005533    2.9305115    2.4864145 
H     4.4307580    3.4506980    1.2059192 
C    -3.2370540    4.0790641    2.0491713 
H    -2.7979885    5.0735861    2.2404039 
H    -3.9217577    4.1730088    1.1856102 
H    -3.8363793    3.8041383    2.9326221 
C    -1.2004484    3.5716310    0.6475006 
H    -0.4361031    2.8236980    0.3645433 
H    -1.7771961    3.8164563   -0.2631376 
H    -0.6776291    4.4896927    0.9663633 
C    -4.1928964   -3.0200473    0.6052537 
H    -4.4439242   -3.6415764   -0.2719048 
H    -3.8367535   -3.6956266    1.4053833 
H    -5.1246064   -2.5431540    0.9511204 
C    -1.9029351   -2.7141033   -0.3827860 
H    -1.4876391   -3.4710491    0.3079328 
H    -2.2001560   -3.2435379   -1.3048470 
H    -1.0933764   -2.0043719   -0.6505969 
