132
Energy =
C     2.1476104   -1.5237557   -2.4670003 
C     2.2473446   -0.1129356   -2.4906133 
C     2.7832769    0.6149840   -1.3895645 
H     1.7936973    0.4394415   -3.3240576 
Pd    0.9657350   -0.5212200   -0.7580583 
P     0.4912649    0.7061171    1.1646610 
P    -1.0488614   -1.7582052   -0.5099365 
H     2.8244105   -2.0594819   -1.7832281 
H     3.5358264    0.1078019   -0.7683419 
C     0.7402369   -3.9067212   -5.7662643 
C     0.2062877   -2.6235889   -5.5573046 
C     0.6466988   -1.8423343   -4.4842666 
C     1.6259502   -2.3289677   -3.5873131 
C     2.1500097   -3.6228086   -3.8078391 
C     1.7181226   -4.3999964   -4.8901393 
H     0.3972793   -4.5154415   -6.6090319 
H    -0.5554708   -2.2296726   -6.2384020 
H     0.2224785   -0.8451426   -4.3343537 
H     2.9134310   -4.0163905   -3.1271487 
H     2.1446882   -5.3960234   -5.0468735 
C     2.9938352    4.9151400   -1.2571573 
C     1.9374812    4.2892799   -1.9409282 
C     1.8589665    2.8934782   -1.9902774 
C     2.8365066    2.0909727   -1.3569613 
C     3.8947400    2.7344167   -0.6817819 
C     3.9731869    4.1318744   -0.6303214 
H     3.0496984    6.0075636   -1.2119546 
H     1.1697500    4.8944173   -2.4354134 
H     1.0212330    2.4175390   -2.5134658 
H     4.6629130    2.1298528   -0.1895280 
H     4.7955683    4.6070583   -0.0858044 
Fe    1.4301960   -2.1601268    2.7894901 
C     0.2517878   -0.5201033    2.4753176 
C    -0.5088374   -1.7546543    2.3432590 
C    -0.4009408   -2.4427313    3.6072247 
C     0.4175585   -1.6718059    4.4932561 
C     0.8284754   -0.4899468    3.8011860 
C     2.2764477   -3.2330113    1.2587719 
C     3.1434655   -2.1589938    1.6429760 
C     3.4602271   -2.3114578    3.0334509 
C     2.7913248   -3.4902607    3.5077298 
C     2.0585265   -4.0600267    2.4104652 
C    -1.0425427    1.7052145    1.1249768 
C    -1.1980609    2.6655563    0.1052064 
C    -2.3415002    3.4759994    0.0443020 
C    -3.3638573    3.2617225    0.9998328 
C    -3.2322192    2.3092887    2.0369691 
C    -2.0488495    1.5500307    2.0938754 
C     1.7625680    1.8584749    1.8188656 
C     3.0121163    1.3390944    2.2105291 
C     4.0347638    2.1741772    2.6807810 
C     3.7901947    3.5665885    2.7300043 
C     2.5543924    4.1182660    2.3275743 
C     1.5459857    3.2452594    1.8826494 
C    -1.4670562   -2.2432773    1.2734871 
H    -0.8561838   -3.4096276    3.8338938 
H     0.7082920   -1.9527324    5.5070867 
H     1.4691611    0.3008724    4.1925357 
H     1.8574643   -3.3826383    0.2663539 
H     3.4950810   -1.3669222    0.9810488 
H     4.0861254   -1.6456456    3.6305314 
H     2.8170908   -3.8738437    4.5292829 
H     1.4349406   -4.9550500    2.4534033 
H    -0.4055728    2.8007324   -0.6383921 
H    -1.9128812    0.8344258    2.9121332 
H     3.1805562    0.2620168    2.1611027 
H     0.5893807    3.6720320    1.5687374 
H    -1.3414438   -3.3413129    1.2511668 
H    -1.2566648   -3.0756814   -2.5003360 
H    -2.3912201    0.2133558   -0.3774125 
C    -4.6904076    0.1438947   -1.8521965 
C    -3.7968042   -1.0421486   -1.4415183 
C    -2.3552294   -0.5581093   -1.1703029 
C    -1.8044201    0.1129985   -2.4534970 
C    -2.7031626    1.2642215   -2.9355516 
C    -4.1619153    0.8235733   -3.1236719 
H    -4.7186202    0.8764920   -1.0218063 
H    -5.7262011   -0.2099897   -2.0026198 
H    -3.7862886   -1.7767102   -2.2681882 
H    -4.2310003   -1.5441425   -0.5644597 
H    -0.7789240    0.4884365   -2.2619676 
H    -1.7224417   -0.6530283   -3.2483648 
H    -2.6645358    2.0711345   -2.1833156 
H    -2.2961891    1.6811809   -3.8749079 
H    -4.2295529    0.1115202   -3.9697042 
H    -4.7920664    1.6912896   -3.3915239 
C    -2.6823621   -5.4271486   -1.9980243 
C    -2.5781757   -4.1530510   -1.1367445 
C    -1.2672650   -3.3832980   -1.4352392 
C    -0.0652898   -4.3211885   -1.1966047 
C    -0.1666627   -5.6037385   -2.0405437 
C    -1.4794959   -6.3547925   -1.7768556 
H    -2.7354935   -5.1378895   -3.0659883 
H    -3.6271567   -5.9494671   -1.7630881 
H    -2.5875389   -4.4500769   -0.0698569 
H    -3.4637579   -3.5238789   -1.2999525 
H     0.8718920   -3.7909030   -1.4292590 
H    -0.0297308   -4.5962455   -0.1233788 
H    -0.1091392   -5.3276819   -3.1094364 
H     0.7051153   -6.2504774   -1.8330664 
H    -1.4916583   -6.7256121   -0.7325364 
H    -1.5516453   -7.2434577   -2.4288500 
C    -2.9257635   -1.9521321    1.6994432 
H    -3.1685933   -0.8807826    1.6143691 
H    -3.6421603   -2.5278132    1.0931319 
H    -3.0613783   -2.2453598    2.7544480 
C    -2.4918495    4.5685430   -0.9878501 
H    -3.3232188    4.3603076   -1.6855035 
H    -2.7241630    5.5301381   -0.4989192 
H    -1.5697823    4.6807611   -1.5805590 
C    -4.3242886    2.1394080    3.0665497 
H    -4.8243403    3.1014872    3.2639895 
H    -5.0980418    1.4309615    2.7139788 
H    -3.9192659    1.7414123    4.0111623 
O    -4.4735989    4.0766289    0.9602751 
C    -5.6079611    3.5608823    0.2518466 
H    -6.3933147    4.3279459    0.3221424 
H    -5.3667217    3.3786418   -0.8132077 
H    -5.9734209    2.6190090    0.7029274 
C     5.3833656    1.6251457    3.0823511 
H     5.5134525    0.5895731    2.7269806 
H     6.1944232    2.2513075    2.6740244 
H     5.5054628    1.6215555    4.1815705 
C     2.3398439    5.6129697    2.3335321 
H     3.2819686    6.1383826    2.1066695 
H     1.5798337    5.9020878    1.5896997 
H     1.9917631    5.9670853    3.3220467 
O     4.8312282    4.4025915    3.0733477 
C     4.8814911    4.8237469    4.4439407 
H     5.7659190    5.4715036    4.5365751 
H     3.9767471    5.3946112    4.7252682 
H     4.9863010    3.9571858    5.1241436 
