132
Energy =
C     2.1741430   -1.5683467   -2.4593776 
C     2.2471044   -0.1569119   -2.5059186 
C     2.7594609    0.5986871   -1.4114342 
H     1.7922369    0.3729292   -3.3532873 
Pd    0.9564026   -0.5529262   -0.7779798 
P     0.4711642    0.6826028    1.1377668 
P    -1.0586919   -1.7939711   -0.5342512 
H     2.8503592   -2.0789756   -1.7561212 
H     3.5197387    0.1181680   -0.7785616 
C     0.8669651   -4.0369651   -5.7357460 
C     0.2935123   -2.7673900   -5.5500384 
C     0.6999623   -1.9586140   -4.4838148 
C     1.6842421   -2.4040832   -3.5713820 
C     2.2461682   -3.6863570   -3.7665993 
C     1.8484823   -4.4904538   -4.8421029 
H     0.5505169   -4.6669117   -6.5732638 
H    -0.4729580   -2.4057233   -6.2435881 
H     0.2442913   -0.9730712   -4.3508645 
H     3.0123428   -4.0485212   -3.0716749 
H     2.3036016   -5.4766379   -4.9794596 
C     2.8652799    4.9044038   -1.3362931 
C     1.8258100    4.2436487   -2.0132164 
C     1.7826546    2.8457135   -2.0455072 
C     2.7792447    2.0760679   -1.4010580 
C     3.8209072    2.7543155   -0.7342702 
C     3.8639396    4.1538152   -0.6998800 
H     2.8938782    5.9984300   -1.3051091 
H     1.0429273    4.8228320   -2.5150369 
H     0.9567583    2.3421667   -2.5616541 
H     4.6037637    2.1754624   -0.2343538 
H     4.6744096    4.6558880   -0.1615879 
Fe    1.4160327   -2.1761049    2.7731816 
C     0.2346862   -0.5431676    2.4493899 
C    -0.5206552   -1.7829102    2.3203831 
C    -0.4135390   -2.4612672    3.5902453 
C     0.4005255   -1.6825952    4.4739080 
C     0.8089957   -0.5032470    3.7763595 
C     2.2362755   -3.2522505    1.2321346 
C     3.1216844   -2.1916350    1.6121874 
C     3.4516181   -2.3568524    2.9975180 
C     2.7696368   -3.5263217    3.4747419 
C     2.0190811   -4.0814740    2.3822718 
C    -1.0712031    1.6685349    1.0958984 
C    -1.2473567    2.6166431    0.0676048 
C    -2.4335239    3.3579461   -0.0344401 
C    -3.4724635    3.0907298    0.8901787 
C    -3.3262592    2.1388615    1.9254256 
C    -2.1016214    1.4534422    2.0267800 
C     1.7392924    1.8383324    1.7880505 
C     1.5138486    3.2227531    1.8607682 
C     2.5200276    4.1014760    2.3010418 
C     3.7624084    3.5556602    2.6902306 
C     4.0162065    2.1649862    2.6300369 
C     2.9961222    1.3247059    2.1651854 
C    -1.4687585   -2.2880703    1.2479938 
H    -0.8631631   -3.4298159    3.8211957 
H     0.6894117   -1.9572137    5.4900020 
H     1.4445700    0.2932732    4.1645017 
H     1.8037833   -3.3916651    0.2439108 
H     3.4788898   -1.4018577    0.9505342 
H     4.0930445   -1.7025806    3.5908074 
H     2.8010560   -3.9148239    4.4942484 
H     1.3831036   -4.9676626    2.4271681 
H    -0.4484729    2.7801802   -0.6633225 
H    -1.9645659    0.7239034    2.8321708 
H     0.5519671    3.6436058    1.5543427 
H     3.1703251    0.2485776    2.1089729 
H    -1.3195958   -3.3833617    1.2223734 
H    -1.2667048   -3.0969384   -2.5299595 
H    -2.3452415    0.2169889   -0.4521551 
C    -4.6698373    0.1858639   -1.8692720 
C    -3.8188071   -1.0224567   -1.4293218 
C    -2.3524062   -0.5879932   -1.2105855 
C    -1.8029603    0.0046057   -2.5334360 
C    -2.6657886    1.1663308   -3.0535497 
C    -4.1458502    0.7796247   -3.1850758 
H    -4.6480862    0.9586131   -1.0753556 
H    -5.7231248   -0.1286739   -1.9792070 
H    -3.8606061   -1.7881845   -2.2262263 
H    -4.2523071   -1.4703801   -0.5234313 
H    -0.7610692    0.3501987   -2.3765332 
H    -1.7641613   -0.7986400   -3.2943953 
H    -2.5756011    2.0085830   -2.3466896 
H    -2.2646930    1.5163529   -4.0224221 
H    -4.2629973    0.0306600   -3.9932459 
H    -4.7451787    1.6597410   -3.4798616 
C    -2.7172986   -5.4306453   -2.0614564 
C    -2.6002006   -4.1720694   -1.1793426 
C    -1.2814159   -3.4124316   -1.4673652 
C    -0.0890702   -4.3642264   -1.2384484 
C    -0.2016257   -5.6301056   -2.1059878 
C    -1.5223824   -6.3728235   -1.8574161 
H    -2.7689727   -5.1229043   -3.1243026 
H    -3.6663758   -5.9486502   -1.8343633 
H    -2.6112753   -4.4859584   -0.1173367 
H    -3.4786438   -3.5295479   -1.3313964 
H     0.8543499   -3.8403572   -1.4596383 
H    -0.0602633   -4.6586235   -0.1700863 
H    -0.1394396   -5.3345411   -3.1694843 
H     0.6632883   -6.2894946   -1.9100708 
H    -1.5384825   -6.7630103   -0.8202244 
H    -1.6026116   -7.2485618   -2.5257929 
C    -2.9341389   -2.0294174    1.6713050 
H    -3.1984769   -0.9636852    1.5860508 
H    -3.6367272   -2.6169680    1.0604634 
H    -3.0672741   -2.3284472    2.7251045 
C    -2.6380665    4.3938323   -1.1145134 
H    -3.5912178    4.2247389   -1.6439073 
H    -2.6895770    5.4106794   -0.6842658 
H    -1.8114594    4.3771365   -1.8428161 
C    -4.4641163    1.8506875    2.8766194 
H    -4.4469874    2.5356809    3.7449452 
H    -5.4340684    1.9813499    2.3692924 
H    -4.3991871    0.8226600    3.2697338 
O    -4.6801998    3.7249585    0.7030455 
C    -4.9286915    4.8839019    1.5132647 
H    -5.9127178    5.2683566    1.2068901 
H    -4.9525331    4.6306106    2.5894493 
H    -4.1594410    5.6607171    1.3433475 
C     2.2941702    5.5947328    2.3074025 
H     1.9090021    5.9426099    3.2843300 
H     3.2385704    6.1286320    2.1120123 
H     1.5579081    5.8804160    1.5384232 
C     5.3759655    1.6294093    3.0105103 
H     5.5694710    1.7507426    4.0918992 
H     5.4636842    0.5577627    2.7671745 
H     6.1728976    2.1825263    2.4840462 
O     4.8069169    4.3873184    3.0328762 
C     4.8270788    4.8603263    4.3872939 
H     5.7300787    5.4812057    4.4844584 
H     3.9349449    5.4718859    4.6184636 
H     4.8800008    4.0172897    5.1022208 
