124
Energy =
C     1.5232264    2.4944565    1.2883552 
C     2.2190290    2.3216534    0.0644353 
C     1.5482315    2.4760153   -1.1820911 
H     3.2499564    1.9443197    0.0726296 
Pd    0.6093009    0.8438763    0.0275583 
P    -0.4427696   -0.2486722   -1.7529454 
P    -0.1003951   -0.6859231    1.7029721 
H     0.6151240    3.1158260    1.2580659 
H     0.6976881    3.1731985   -1.2092276 
C     3.3147011    2.2989739    5.1893855 
C     3.8890925    1.5784617    4.1281645 
C     3.3075976    1.6118330    2.8573363 
C     2.1314304    2.3615498    2.6213636 
C     1.5454941    3.0511536    3.7069443 
C     2.1386064    3.0316525    4.9743520 
H     3.7795137    2.2820799    6.1803974 
H     4.7995072    0.9926299    4.2919167 
H     3.7712279    1.0458074    2.0440817 
H     0.6252403    3.6233949    3.5449907 
H     1.6787999    3.5883332    5.7971476 
C     3.4490896    1.8801020   -4.9955105 
C     2.4989440    2.8963877   -4.8219542 
C     1.8737207    3.0709297   -3.5810166 
C     2.1975529    2.2405521   -2.4870238 
C     3.1505383    1.2141238   -2.6779608 
C     3.7691648    1.0354510   -3.9192153 
H     3.9334574    1.7387154   -5.9671995 
H     2.2316828    3.5510085   -5.6576168 
H     1.1279321    3.8628376   -3.4551117 
H     3.3937034    0.5401391   -1.8487535 
H     4.5002282    0.2309488   -4.0515426 
Fe   -3.2062485    0.9063500   -0.0740539 
C    -2.1455574   -0.4828953   -1.1480605 
C    -2.4703970   -1.0085480    0.1709597 
C    -3.9046356   -0.9797582    0.2920395 
C    -4.4649338   -0.4538649   -0.9157485 
C    -3.3875573   -0.1398782   -1.8042122 
C    -3.6079198    2.8272670   -0.6585183 
C    -4.5515240    2.3849289    0.3271141 
C    -3.8249298    2.0413880    1.5148490 
C    -2.4293739    2.2710869    1.2667710 
C    -2.2992097    2.7587061   -0.0750947 
C    -1.5725813   -1.7445919    1.1434952 
H    -4.4640555   -1.3123602    1.1692484 
H    -5.5254716   -0.2901621   -1.1150766 
H    -3.4821471    0.2921117   -2.8017734 
H    -3.8495692    3.1440506   -1.6747543 
H    -5.6313411    2.3053206    0.1902993 
H    -4.2638277    1.6733521    2.4424120 
H    -1.6170193    2.1193045    1.9778556 
H    -1.3638180    3.0316245   -0.5647354 
H    -2.1665914   -1.9101762    2.0579736 
C    -1.1667482   -3.1277389    0.5862139 
H    -0.4311954   -3.0453865   -0.2255229 
H    -0.7348668   -3.7637160    1.3733145 
H    -2.0642690   -3.6279126    0.1837666 
C     3.6123895   -3.4028631    2.6036643 
C     3.6580849   -2.3320302    1.6933619 
C     2.5163309   -1.5597951    1.4632143 
C     1.2956125   -1.8171855    2.1187855 
C     1.2359564   -2.8758411    3.0691398 
C     2.3967695   -3.6446349    3.2718970 
H     4.5886416   -2.1016695    1.1623204 
H     2.5567116   -0.7189747    0.7586893 
H     2.3491576   -4.4707972    3.9923474 
C    -1.4842514    0.5518456    5.9563392 
C    -2.4454142    0.4454114    4.9361418 
C    -2.0101263    0.1020837    3.6433255 
C    -0.6451845   -0.1014304    3.3663469 
C     0.3017126    0.0506159    4.3999464 
C    -0.1124786    0.3504071    5.7105078 
H    -1.8138596    0.7817081    6.9770382 
H    -2.7491883   -0.0120952    2.8446225 
H     1.3657078   -0.1146244    4.1991965 
C     4.8264805   -4.2584235    2.8826429 
H     5.2161239   -4.0627929    3.8989404 
H     4.5762585   -5.3326782    2.8335960 
H     5.6386695   -4.0578332    2.1651820 
C     0.0197479   -3.1992747    3.9124720 
H     0.1389113   -2.7717218    4.9248330 
H    -0.9143152   -2.7851530    3.5081417 
H    -0.0991617   -4.2905283    4.0218238 
C    -3.9114061    0.6957918    5.2153538 
H    -4.5574594    0.1259993    4.5255785 
H    -4.1804625    0.4166602    6.2476900 
H    -4.1548771    1.7684070    5.0923821 
C     0.8804068    0.4155553    6.8497640 
H     0.5903317   -0.2787617    7.6588250 
H     1.8965232    0.1550803    6.5152113 
H     0.9171101    1.4286727    7.2889256 
C     1.5356354   -4.3633769   -2.7027717 
C     2.1968200   -3.3739901   -1.9971665 
C     1.5556499   -2.1331727   -1.7642826 
C     0.2698002   -1.8757276   -2.2323924 
H     2.0109398   -5.3357212   -2.8728265 
H     3.2010403   -3.5459448   -1.5975574 
H     2.0657046   -1.3632790   -1.1806479 
C    -0.4230625   -2.8685235   -3.0145555 
C     0.2295483   -4.1399701   -3.2318022 
C    -0.4428411   -5.1489313   -3.9825568 
C    -1.6996340   -4.9207304   -4.5169086 
C    -2.3310750   -3.6648859   -4.3255088 
C    -1.7088262   -2.6657259   -3.5932090 
H     0.0592201   -6.1105410   -4.1354898 
H    -2.2039591   -5.7024299   -5.0939875 
H    -3.3174472   -3.4808843   -4.7637013 
H    -2.2064093   -1.7026470   -3.4694129 
C    -1.3299977    1.8357424   -3.4053009 
C    -0.5983659    0.6534723   -3.3431955 
C     0.0959832    0.1930540   -4.5019091 
C     0.0156949    0.9003492   -5.6877917 
H    -1.8550618    2.1930007   -2.5175666 
H     0.6975744   -0.7184025   -4.4516675 
H     0.5543692    0.5406974   -6.5708788 
C    -0.7402020    2.1044484   -5.7848380 
C    -1.4245865    2.5852889   -4.6105876 
C    -2.1609982    3.8050811   -4.6884784 
C    -2.2182125    4.5202270   -5.8732089 
C    -1.5441534    4.0448797   -7.0318547 
C    -0.8224263    2.8625539   -6.9886852 
H    -2.6766699    4.1727337   -3.7938853 
H    -2.7835229    5.4565845   -5.9227528 
H    -1.5986326    4.6203306   -7.9617513 
H    -0.3021781    2.4969928   -7.8808057 
