90
Energy =
C     2.9277139    0.1660422   -1.1263337 
C     3.0684812   -0.1679178    0.2283800 
C     2.5345642   -1.4072170    0.7305258 
H     3.5119469    0.5565861    0.9237874 
Pd    0.8515560   -0.1788891    0.0359781 
P    -0.8728131   -1.7290250    0.4566728 
P    -0.5663157    1.6803240   -0.4708413 
H     2.5473929   -0.6223710   -1.7945621 
H     2.5791911   -2.2674261    0.0509650 
C     4.5389451    3.5365936   -3.2367865 
C     3.5958797    2.6932528   -3.8465448 
C     3.0869702    1.5942926   -3.1469687 
C     3.4927724    1.3275842   -1.8171098 
C     4.4560192    2.1777179   -1.2225304 
C     4.9734426    3.2683101   -1.9274768 
H     4.9469733    4.3914321   -3.7856378 
H     3.2674356    2.8882094   -4.8725373 
H     2.3592618    0.9290230   -3.6264654 
H     4.8151597    1.9742373   -0.2087829 
H     5.7249800    3.9110496   -1.4579815 
C     2.5342771   -2.4296215    4.9170103 
C     2.4409053   -1.0837331    4.5250457 
C     2.4476448   -0.7424582    3.1684846 
C     2.5511519   -1.7405803    2.1692616 
C     2.6559842   -3.0895180    2.5807360 
C     2.6448726   -3.4302729    3.9393952 
H     2.5270308   -2.6953081    5.9789409 
H     2.3563018   -0.2972561    5.2823144 
H     2.3463261    0.3088466    2.8773286 
H     2.7611565   -3.8743617    1.8229654 
H     2.7316564   -4.4805441    4.2366533 
Fe   -2.6272448   -0.4694579   -2.2132812 
C    -1.7605185   -1.9093829   -1.1191542 
C    -1.0695589   -1.7316027   -2.3849212 
H    -0.0227411   -1.4378895   -2.4943706 
C    -1.9991971   -1.9774823   -3.4451503 
H    -1.7910742   -1.8916248   -4.5130462 
C    -3.2630193   -2.3127910   -2.8579429 
H    -4.1862295   -2.5238016   -3.4009439 
C    -3.1243307   -2.2858480   -1.4326938 
C    -2.0634456    1.3458703   -1.4785320 
C    -3.4137974    1.0049747   -1.0750898 
H    -3.7792573    0.9011776   -0.0557307 
C    -4.2070880    0.8213438   -2.2568564 
H    -5.2630974    0.5464417   -2.2771995 
C    -3.3654964    1.0231452   -3.3976764 
H    -3.6633984    0.9255685   -4.4430647 
C    -2.0460115    1.3302120   -2.9283759 
C    -1.0532591    2.6565452    1.0995612 
C     0.2864270    3.0484766   -1.4523255 
H    -3.9201026   -2.4967811   -0.7198297 
H    -1.1744907    1.5114402   -3.5601462 
C    -0.3763029   -3.4988257    0.8421720 
C    -2.0003123   -1.1223069    1.8273130 
H    -0.7920829    3.6898997    0.8111640 
H     0.7011952    2.5213986   -2.3311372 
H     0.3228049   -3.3976264    1.6926138 
H    -1.9848151   -0.0352543    1.6317784 
C    -1.5439904   -4.4138814    1.2509823 
H    -1.1666601   -5.4434548    1.3873322 
H    -2.0099858   -4.1067325    2.2002837 
H    -2.3225907   -4.4464702    0.4685580 
C     0.3763518   -4.0938368   -0.3634112 
H     0.8860819   -5.0255534   -0.0610430 
H    -0.3228017   -4.3379140   -1.1814547 
H     1.1355186   -3.4040884   -0.7691095 
C    -1.2818600   -1.3643895    3.1709375 
H    -1.7564959   -0.7569739    3.9612354 
H    -1.3436224   -2.4214231    3.4800292 
H    -0.2131637   -1.0911332    3.1236663 
C    -3.4724796   -1.5621017    1.8504122 
H    -3.9672600   -1.0973209    2.7226684 
H    -4.0071864   -1.2274434    0.9480992 
H    -3.5913100   -2.6526445    1.9447605 
C    -2.5330516    2.6878735    1.5079985 
H    -2.6437602    3.3742270    2.3666411 
H    -3.1784306    3.0587283    0.6964349 
H    -2.9052689    1.7014779    1.8340054 
C    -0.1367605    2.2515091    2.2693054 
H    -0.3118961    2.9218647    3.1298794 
H    -0.3292467    1.2165242    2.5981163 
H     0.9296314    2.3238310    1.9960893 
C    -0.6458735    4.1775041   -1.9236849 
H    -0.0592213    4.9159988   -2.4991851 
H    -1.4638135    3.8156714   -2.5657722 
H    -1.0954771    4.7124544   -1.0675510 
C     1.4644185    3.6081334   -0.6333038 
H     2.1561513    4.1513822   -1.2985790 
H     1.1165751    4.3162650    0.1392388 
H     2.0370581    2.8090963   -0.1345995 
