124
Energy =
C     3.2373139   -0.8512099   -1.1816046 
C     3.2453210    0.5647616   -1.3560456 
C     3.2469861    1.4509785   -0.2603796 
H     3.1349805    0.9670460   -2.3715636 
Pd    1.4047419    0.0203252   -0.2734303 
P    -0.3426583    1.4300048    0.5307475 
P     0.1176122   -1.9215151    0.0006489 
H     3.7215507   -1.2512386   -0.2780843 
H     3.5895768    1.0499172    0.7053821 
C     3.2747612   -3.4626157   -4.6081987 
C     2.4710517   -2.3090298   -4.6148205 
C     2.4481792   -1.4617395   -3.5028303 
C     3.2232889   -1.7520322   -2.3553916 
C     4.0251398   -2.9128500   -2.3622779 
C     4.0551365   -3.7567137   -3.4812880 
H     3.2915452   -4.1266164   -5.4783609 
H     1.8545624   -2.0755512   -5.4892472 
H     1.7965646   -0.5806740   -3.5057076 
H     4.6374023   -3.1489626   -1.4846287 
H     4.6867646   -4.6509054   -3.4700068 
C     3.4511739    5.7445252   -0.5055388 
C     3.8749129    5.0679610    0.6472677 
C     3.7923448    3.6712788    0.7126885 
C     3.2904751    2.9185350   -0.3728418 
C     2.8963820    3.6145612   -1.5405728 
C     2.9689435    5.0092402   -1.6022465 
H     3.5092344    6.8364647   -0.5574179 
H     4.2739255    5.6291877    1.4985580 
H     4.1312555    3.1488828    1.6140012 
H     2.5292749    3.0609147   -2.4093833 
H     2.6537893    5.5283471   -2.5134550 
Fe   -2.3049891    0.2620378    3.4585673 
C    -1.6338853    0.5991704    1.5306694 
C    -1.6273175   -0.8213930    1.8743338 
C    -2.9757417   -1.1949499    2.2135046 
C    -3.8130847   -0.0380222    2.1248157 
C    -2.9951645    1.0667791    1.7294363 
C    -1.8554076    1.6634380    4.8951981 
C    -3.2031038    1.2034267    5.0396655 
C    -3.1645409   -0.2159780    5.2461867 
C    -1.7913859   -0.6320018    5.2303807 
C    -0.9810621    0.5298040    5.0134802 
C    -0.4864015   -1.8025268    1.7847027 
H    -3.2893691   -2.1903767    2.5358169 
H    -4.8757617    0.0075408    2.3704833 
H    -3.3434870    2.0915035    1.6033724 
H    -1.5468406    2.6954418    4.7322720 
H    -4.1024740    1.8186793    4.9768744 
H    -4.0303844   -0.8705859    5.3633740 
H    -1.4358697   -1.6568233    5.3523458 
H     0.1082002    0.5515594    4.9618086 
H    -1.7385911    0.9103245   -1.3010151 
C    -0.9340355    2.2731086   -3.5668311 
C    -0.2447197    2.1894296   -2.1936154 
C    -1.2548241    1.8792510   -1.0673335 
C    -2.3565956    2.9591007   -1.0565381 
C    -3.0685888    3.0111116   -2.4234256 
C    -2.0787729    3.2978861   -3.5628719 
H    -1.3353444    1.2748870   -3.8287139 
H    -0.1871005    2.5268316   -4.3411669 
H     0.2535956    3.1504096   -1.9681350 
H     0.5463655    1.4130704   -2.2081345 
H    -3.0951161    2.7725592   -0.2619608 
H    -1.8988790    3.9456480   -0.8576625 
H    -3.5745646    2.0422261   -2.6054136 
H    -3.8605150    3.7807611   -2.3959423 
H    -1.6580133    4.3140914   -3.4300053 
H    -2.5997552    3.2963816   -4.5368517 
H     0.8226859    3.5163521    0.7011973 
C     1.6001433    3.7502737    3.4399767 
C     1.0821409    2.5456610    2.6325029 
C     0.1981794    2.9730627    1.4385296 
C    -0.9450249    3.8896016    1.9264691 
C    -0.3907644    5.1115896    2.6842492 
C     0.4706714    4.6912594    3.8837913 
H     2.3042491    4.3225967    2.8106407 
H     2.1730904    3.3882778    4.3132041 
H     0.4733174    1.8900215    3.2810763 
H     1.9304727    1.9360733    2.2720003 
H    -1.5660442    4.2293854    1.0845481 
H    -1.5987818    3.3037981    2.5983844 
H     0.2195763    5.7211524    1.9892034 
H    -1.2300639    5.7505460    3.0133134 
H    -0.1646026    4.1865153    4.6372848 
H     0.8935448    5.5801138    4.3847301 
H    -1.9676089   -1.0416643   -0.5843509 
C    -3.7601056   -2.8778770   -1.4659259 
C    -2.4165315   -3.1293982   -0.7554058 
C    -1.4629171   -1.9391283   -0.9960694 
C    -1.2420614   -1.6732108   -2.5014262 
C    -2.5920295   -1.4396738   -3.2033352 
C    -3.5606581   -2.6109292   -2.9673831 
H    -4.2546509   -2.0045002   -0.9961556 
H    -4.4298076   -3.7430743   -1.3127183 
H    -1.9655164   -4.0594196   -1.1463433 
H    -2.5827259   -3.2813728    0.3251023 
H    -0.5781597   -0.7991142   -2.6294498 
H    -0.7258877   -2.5284095   -2.9713877 
H    -3.0468707   -0.5069287   -2.8129350 
H    -2.4289552   -1.2813240   -4.2846340 
H    -3.1527614   -3.5220284   -3.4479383 
H    -4.5320726   -2.4071536   -3.4519378 
H     2.0325081   -3.3667638    0.1218463 
C     1.7283879   -5.5260359   -1.6008521 
C     0.9268143   -4.2140501   -1.5265037 
C     0.9747356   -3.6086440   -0.1025315 
C     0.4852343   -4.6448699    0.9394742 
C     1.2758821   -5.9640053    0.8363785 
C     1.2234740   -6.5538398   -0.5797362 
H     2.7954052   -5.3095691   -1.4056440 
H     1.6740781   -5.9247194   -2.6295159 
H    -0.1231636   -4.4314874   -1.7927655 
H     1.3066114   -3.4957504   -2.2687651 
H     0.5878835   -4.2515447    1.9650259 
H    -0.5899062   -4.8507027    0.7768309 
H     2.3312902   -5.7717514    1.1135671 
H     0.8806897   -6.6819290    1.5774077 
H     0.1801966   -6.8372704   -0.8226741 
H     1.8237662   -7.4795455   -0.6322040 
H    -0.9000897   -2.7902315    2.0458331 
C     0.7129962   -1.5058014    2.7054945 
H     1.0668799   -0.4706181    2.5647449 
H     0.4169322   -1.6296929    3.7586768 
H     1.5579166   -2.1873297    2.5014615 
