98
Energy =
C    -0.9413217   -1.7578818   -2.2616941 
C    -0.5890246   -0.5489111   -2.9094867 
C     0.7703115   -0.1562267   -3.0131345 
H    -1.3803021    0.1295968   -3.2505544 
Pd    0.1090678   -0.3036262   -0.8281785 
P     1.7826121    1.1351855    0.0204029 
P    -0.9919899   -0.9735250    1.1561829 
H    -0.1550226   -2.5230485   -2.1775900 
H     1.5157537   -0.9612818   -2.9490495 
C    -4.9164780   -3.3668369   -1.9170867 
C    -3.7965380   -4.2115078   -1.9114236 
C    -2.5094852   -3.6714080   -2.0253019 
C    -2.3152692   -2.2766997   -2.1546317 
C    -3.4553699   -1.4404848   -2.1790179 
C    -4.7399758   -1.9792978   -2.0560960 
H    -5.9231518   -3.7858309   -1.8206576 
H    -3.9251823   -5.2944690   -1.8153314 
H    -1.6373985   -4.3346711   -2.0089838 
H    -3.3356492   -0.3571040   -2.2821411 
H    -5.6103130   -1.3150198   -2.0691376 
C     2.2261315    3.4122466   -4.9332120 
C     0.8784768    3.3308311   -4.5437577 
C     0.3898922    2.1758244   -3.9247272 
C     1.2373826    1.0699649   -3.6827752 
C     2.5847269    1.1578825   -4.1044571 
C     3.0761438    2.3172030   -4.7171582 
H     2.6068246    4.3202241   -5.4115588 
H     0.2064540    4.1773530   -4.7189210 
H    -0.6568935    2.1420342   -3.6069450 
H     3.2520511    0.3019804   -3.9560304 
H     4.1233406    2.3627363   -5.0334221 
Fe    1.1364469    0.4890111    3.3113071 
C     0.0120482   -1.0363910    2.6746092 
C    -0.3627583   -0.6664062    4.0268793 
H    -1.3416892   -0.3160269    4.3573235 
C     0.7914489   -0.8086743    4.8650752 
H     0.8356581   -0.5747904    5.9302258 
C     1.8799447   -1.2726499    4.0571613 
H     2.9002548   -1.4548693    4.3988955 
C     1.4067870   -1.4209876    2.7134081 
C     1.6595934    1.6489527    1.7660207 
C     2.6863868    1.6846106    2.7899903 
H     3.7278153    1.3804611    2.6761010 
C     2.0938470    2.1670154    4.0031115 
H     2.6055440    2.2749777    4.9610707 
C     0.7117669    2.4457540    3.7488143 
H    -0.0158828    2.8049109    4.4785560 
C     0.4392374    2.1359492    2.3767460 
H     1.9953096   -1.7428447    1.8561381 
H    -0.5235617    2.2389305    1.8753755 
C     2.2047893    2.7939164   -0.7816470 
C     3.6880036    2.9715571   -0.3971173 
C     4.4047393    1.6376363   -0.6432702 
C     3.5490450    0.4486702   -0.1122396 
H     2.1266732    2.6273230   -1.8709935 
H     4.1422888    3.7867314   -0.9886925 
H     3.7575501    3.2670941    0.6668271 
H     4.5356112    1.5044292   -1.7330165 
H     5.4120577    1.6189013   -0.1921175 
H     3.8290129    0.1958066    0.9257181 
C    -1.8979927   -2.6127064    1.2276182 
C    -2.9791584   -2.3557926    2.2959176 
C    -3.6115509   -0.9919870    1.9670049 
C    -2.4972141    0.0493419    1.6584194 
H    -2.4031931   -2.7017248    0.2500192 
H    -3.7399872   -3.1559114    2.2874512 
H    -2.5234294   -2.3521948    3.3041869 
H    -4.2428171   -1.1050177    1.0653357 
H    -4.2665830   -0.6362506    2.7805194 
H    -2.1926227    0.5700240    2.5840137 
C    -2.8999280    1.1082655    0.6161974 
H    -2.0181974    1.7235399    0.3599009 
H    -3.1906949    0.5947486   -0.3178351 
C    -4.0402145    2.0170786    1.0929370 
H    -4.2808287    2.7785846    0.3312897 
H    -4.9605934    1.4420213    1.2952856 
H    -3.7624928    2.5451085    2.0235236 
C    -0.9789392   -3.8275266    1.4291052 
H    -0.2309720   -3.8426498    0.6117329 
H    -0.4086021   -3.7072319    2.3692200 
C    -1.7381141   -5.1624239    1.4533140 
H    -1.0354573   -6.0101599    1.5251590 
H    -2.4206598   -5.2216038    2.3186849 
H    -2.3425354   -5.2952348    0.5387339 
C     1.3130043    3.9747642   -0.3678870 
H     1.7507669    4.8878978   -0.8142080 
H     1.3821757    4.1102982    0.7273782 
C    -0.1533947    3.8560484   -0.7960065 
H    -0.2508983    3.9012932   -1.8923091 
H    -0.5899758    2.8942015   -0.4691069 
H    -0.7611650    4.6691276   -0.3640971 
C     3.7454376   -0.8044061   -0.9881195 
H     4.8377844   -0.9669844   -1.0650379 
H     3.4114332   -0.5704695   -2.0136860 
C     3.0830653   -2.0975822   -0.5099023 
H     3.2709170   -2.9199919   -1.2214055 
H     3.4729270   -2.4133565    0.4739076 
H     1.9829288   -1.9753673   -0.4216397 
