112
Energy =
C     2.3790841   -0.2575939   -2.4510290 
C     1.8261173    1.0480251   -2.6343205 
C     1.9441602    2.0294988   -1.6302843 
H     1.2074105    1.2535093   -3.5163913 
Pd    0.8485691    0.0978490   -0.8771882 
P    -0.9228102    0.8908090    0.4527941 
P     0.8682432   -2.0423113    0.0623729 
H     3.2888708   -0.3296722   -1.8422390 
H     2.7178249    1.8618553   -0.8651784 
C     1.8183027   -3.5351540   -5.1892488 
C     0.8992809   -2.4721025   -5.1747347 
C     1.0733108   -1.4021553   -4.2911446 
C     2.1791158   -1.3624384   -3.4084263 
C     3.0981444   -2.4371170   -3.4366197 
C     2.9163320   -3.5131244   -4.3147947 
H     1.6786752   -4.3746644   -5.8780271 
H     0.0356795   -2.4836672   -5.8479082 
H     0.3284460   -0.6006721   -4.2691781 
H     3.9558326   -2.4294153   -2.7563617 
H     3.6377079   -4.3367072   -4.3172271 
C     0.5805508    6.1073346   -1.7396228 
C     1.5771686    5.7029768   -0.8395233 
C     2.0016125    4.3689088   -0.8154529 
C     1.4499617    3.4118697   -1.6984978 
C     0.4665470    3.8428487   -2.6206300 
C     0.0313421    5.1709630   -2.6329191 
H     0.2416800    7.1481419   -1.7560137 
H     2.0250515    6.4289029   -0.1531554 
H     2.7771907    4.0578340   -0.1069444 
H     0.0342542    3.1342052   -3.3303479 
H    -0.7360970    5.4822172   -3.3491965 
Fe   -1.4176265   -0.3344987    3.9332168 
C    -1.4250360   -0.1710064    1.8652244 
C    -0.7750828   -1.4047167    2.2906294 
C    -1.7222336   -2.1485662    3.0820579 
C    -2.9482850   -1.4115795    3.1505909 
C    -2.7647758   -0.1909501    2.4288686 
C    -2.2465486    0.5458897    5.5817660 
C    -1.6249525   -0.6998029    5.9299153 
C    -0.2341660   -0.6139494    5.5901269 
C     0.0038259    0.6840665    5.0320325 
C    -1.2409955    1.3997097    5.0262949 
C     0.6015133   -1.9212707    1.9348424 
H    -1.5198064   -3.1077226    3.5644235 
H    -3.8438513   -1.7015537    3.7033434 
H    -3.5196086    0.5877156    2.3089874 
H    -3.3048650    0.7882664    5.6948764 
H    -2.1287048   -1.5718017    6.3515166 
H     0.5046859   -1.4052952    5.7306027 
H     0.9648627    1.0672027    4.6865619 
H    -1.3933745    2.4170905    4.6685998 
H    -3.2603235    1.2907884    0.2566012 
C    -2.3592943   -1.0151774   -2.2085422 
C    -3.0218426   -0.5029837   -0.9226436 
C    -2.5559840    0.9128761   -0.5051718 
C    -2.5863989    1.8964816   -1.6985758 
C    -1.9584468    1.3304006   -2.9812925 
C    -2.5571116   -0.0290367   -3.3647319 
H    -2.7504344   -2.0172046   -2.4551318 
H    -1.2695850   -1.1408475   -2.0390677 
H    -2.8707904   -1.2187471   -0.0963551 
H    -4.1163500   -0.4494601   -1.0845841 
H    -3.6521683    2.1216526   -1.8983112 
H    -2.1143877    2.8595041   -1.4327154 
H    -2.0686192    2.0621313   -3.8018792 
H    -0.8720910    1.1905504   -2.8108443 
H    -2.0858510   -0.4121609   -4.2879548 
H    -3.6366308    0.0853332   -3.5859023 
H    -0.4674855    3.2107363    0.1384679 
C     0.7662732    4.1321421    2.5344539 
C     0.5122647    2.7090314    2.0027605 
C    -0.7077410    2.6449189    1.0605333 
C    -1.9592038    3.2654310    1.7132669 
C    -1.6753056    4.7078267    2.1751640 
C    -0.4901100    4.7670114    3.1510501 
H     1.1035548    4.7688188    1.6975678 
H     1.5907021    4.1086539    3.2702191 
H     0.3297223    2.0131955    2.8401396 
H     1.4082009    2.3369213    1.4704253 
H    -2.8071341    3.2665490    1.0061072 
H    -2.2565221    2.6463757    2.5809272 
H    -1.4500753    5.3298406    1.2866926 
H    -2.5826126    5.1334062    2.6402989 
H    -0.7568487    4.2410840    4.0880927 
H    -0.2815570    5.8132966    3.4369024 
H     0.6792330   -2.9609935    2.3008846 
C     1.7397233   -1.0876771    2.5521136 
H     1.5889084   -1.0457211    3.6401707 
H     2.7272363   -1.5337568    2.3570556 
H     1.7255440   -0.0542370    2.1645754 
C    -2.1216946   -5.0078325   -1.9109464 
C    -2.3812911   -4.5508304   -0.6113245 
C    -1.4855154   -3.6812664    0.0289264 
C    -0.3136345   -3.2604013   -0.6301167 
C    -0.0575819   -3.7255578   -1.9404911 
C    -0.9540726   -4.5943590   -2.5715139 
H    -2.8246547   -5.6854456   -2.4064087 
H    -3.2871538   -4.8703613   -0.0857347 
H    -1.7141268   -3.3296147    1.0359924 
H     0.8493261   -3.4161615   -2.4654934 
H    -0.7349615   -4.9431649   -3.5857220 
C     5.0454247   -4.1075518   -0.1863024 
C     4.9426757   -2.7197677   -0.0008765 
C     3.6815220   -2.1140584    0.0601051 
C     2.5046623   -2.8861923   -0.0510377 
C     2.6176141   -4.2816795   -0.2156925 
C     3.8822685   -4.8838593   -0.2902656 
H     6.0302628   -4.5819081   -0.2468047 
H     5.8455261   -2.1067436    0.0877275 
H     3.6071479   -1.0290516    0.1928049 
H     1.7197049   -4.9016961   -0.2965162 
H     3.9555594   -5.9676313   -0.4281152 
