134
Energy =
C    -0.1561450    1.2748432   -3.1118304 
C     0.9915793    0.4434537   -3.2360109 
C     0.9030973   -0.9687026   -3.2280265 
H     1.9777302    0.9234136   -3.2063656 
Pd    0.1146726   -0.0045710   -1.2762028 
P     0.4658565   -1.8547451    0.1748617 
P    -0.9471705    1.3544256    0.3159418 
H    -1.1198463    0.8545446   -3.4375962 
H    -0.0723076   -1.4153664   -3.4663686 
C     0.1934686    5.5483549   -3.4184983 
C     1.0892916    4.8314738   -2.6082748 
C     0.9676959    3.4451534   -2.4826213 
C    -0.0579833    2.7471450   -3.1582572 
C    -0.9742157    3.4825287   -3.9413220 
C    -0.8372828    4.8693053   -4.0843363 
H     0.2910067    6.6342242   -3.5193636 
H     1.8777387    5.3594013   -2.0620053 
H     1.6458907    2.8906487   -1.8273473 
H    -1.7822137    2.9571081   -4.4631656 
H    -1.5432384    5.4228817   -4.7118722 
C     4.2294985   -3.6818124   -3.6665222 
C     2.9169321   -4.1655241   -3.5622078 
C     1.8446727   -3.2751739   -3.4334565 
C     2.0567425   -1.8769989   -3.3852342 
C     3.3835656   -1.4049028   -3.5334963 
C     4.4544532   -2.2949518   -3.6674164 
H     5.0696792   -4.3763604   -3.7680814 
H     2.7222174   -5.2429513   -3.5841524 
H     0.8273252   -3.6672981   -3.3574152 
H     3.5827588   -0.3297134   -3.5612863 
H     5.4710925   -1.9046694   -3.7836460 
Fe    4.1521069    0.8894175    1.2247076 
C     2.6352709   -0.2382638    0.4765142 
C     2.0992841    0.9273091    1.1687241 
C     2.6703232    2.0962996    0.5420003 
H     2.4970578    3.1284164    0.8445174 
C     3.5235876    1.6697795   -0.5309849 
H     4.1207021    2.3216375   -1.1719706 
C     3.4999403    0.2372020   -0.5736263 
H     4.0700420   -0.3939942   -1.2533654 
C     4.9925351    0.0712356    2.9093886 
H     4.5451678   -0.6657573    3.5796891 
C     4.9060042    1.5007674    3.0324137 
H     4.3705586    2.0543695    3.8060323 
C     5.6441237    2.0842190    1.9504462 
H     5.7527533    3.1520170    1.7515940 
C     6.1883285    1.0184926    1.1585205 
H     6.7822427    1.1330698    0.2497746 
C     5.7862567   -0.2250155    1.7510055 
H     6.0423549   -1.2204420    1.3841415 
C     1.0839314    0.8949152    2.2662350 
C    -0.3158026    1.0315095    2.0263463 
C    -1.2173352    0.9292217    3.1032697 
H    -2.2922900    0.9821650    2.9173023 
C    -0.7649848    0.7275515    4.4119030 
H    -1.4891662    0.6439402    5.2283454 
C     0.6076992    0.6187033    4.6606478 
H     0.9774088    0.4602533    5.6788952 
C     1.5102154    0.6906692    3.5938882 
H     2.5812942    0.5855833    3.7688707 
C    -0.5381627   -2.1015608    1.7095629 
C    -1.9341526   -2.1052696    1.5483199 
H    -2.3676932   -1.9500785    0.5569399 
C    -2.7954812   -2.2998211    2.6420998 
C    -2.2247975   -2.5251371    3.9061663 
H    -2.8830421   -2.6774285    4.7702745 
C    -0.8295020   -2.5585514    4.0935663 
C     0.0059684   -2.3393220    2.9843813 
H     1.0882638   -2.3471804    3.1439145 
C     0.0675642   -3.4505957   -0.6574193 
C    -1.0029131   -3.4074072   -1.5754523 
H    -1.4711898   -2.4438755   -1.8099747 
C    -1.4750640   -4.5723968   -2.2005223 
C    -0.8283638   -5.7901625   -1.9075695 
H    -1.1701601   -6.7074552   -2.4022378 
C     0.2334489   -5.8663826   -0.9888301 
C     0.6566795   -4.6853061   -0.3459413 
H     1.4488724   -4.7488761    0.4046294 
C     2.2749344   -1.6852637    0.7416062 
H     2.2703577   -1.8394578    1.8321482 
C     3.2647887   -2.6657183    0.0928630 
H     3.1537821   -2.7083938   -1.0017520 
H     4.2891118   -2.3294467    0.3231367 
H     3.1482144   -3.6839529    0.4910217 
C    -2.6320067   -4.5234617   -3.1738670 
C     0.9280222   -7.1793922   -0.7031222 
C    -4.2932401   -2.2319105    2.4440587 
C    -0.2443111   -2.8093688    5.4651096 
C    -5.5048524    0.5243271    0.0181400 
C    -4.6096116   -0.2084111   -0.7782825 
C    -3.2336667    0.0614234   -0.6471138 
C    -2.7600427    1.0149830    0.2682235 
C    -3.6853631    1.7565197    1.0336343 
C    -5.0649032    1.5134946    0.9240096 
H    -6.5806200    0.3320834   -0.0760237 
H    -2.5073382   -0.4731706   -1.2745160 
H    -3.3328184    2.5543317    1.6963182 
C    -1.0447825    5.9819725    0.0559207 
C    -1.9054520    5.2200418   -0.7571483 
C    -1.8276390    3.8194288   -0.6844115 
C    -0.9463174    3.1927852    0.2194536 
C    -0.1246222    3.9793385    1.0471314 
C    -0.1513068    5.3828523    0.9625211 
H    -1.0858741    7.0764736   -0.0066086 
H    -2.4829574    3.2137635   -1.3187273 
H     0.5189795    3.5031365    1.7926103 
H    -4.8387864   -2.5058084    3.3616006 
H    -4.5970358   -1.2101128    2.1510807 
H    -4.6189682   -2.9087190    1.6340582 
H     0.8506302   -2.6814149    5.4674298 
H    -0.6711040   -2.1142802    6.2100998 
H    -0.4691266   -3.8349424    5.8109109 
H    -3.0250655   -3.4989730   -3.2825571 
H    -2.3266060   -4.8811329   -4.1737143 
H    -3.4600176   -5.1725900   -2.8365384 
H     0.3054778   -8.0404863   -0.9958165 
H     1.8777330   -7.2448984   -1.2672019 
H     1.1764299   -7.2776843    0.3675737 
C    -5.0874323   -1.2808980   -1.7319086 
H    -6.1739656   -1.2192568   -1.9045318 
H    -4.5773195   -1.2055947   -2.7083539 
H    -4.8675994   -2.2866264   -1.3254958 
C    -6.0611917    2.2850567    1.7606686 
H    -5.5939354    3.1594157    2.2422935 
H    -6.9091819    2.6374769    1.1482051 
H    -6.4803811    1.6435985    2.5582920 
C    -2.9198099    5.8961927   -1.6516622 
H    -3.3202239    5.1996681   -2.4054977 
H    -3.7695116    6.2752692   -1.0531352 
H    -2.4782480    6.7588130   -2.1787925 
C     0.7440981    6.2313566    1.8392614 
H     0.1498469    6.8969387    2.4910380 
H     1.3862516    5.6089873    2.4844682 
H     1.3981300    6.8780080    1.2263346 
