110
Energy =
C    -2.1100645   -0.0108669   -2.2400888 
C    -0.8638248   -0.0337925   -2.9301357 
C    -0.0206739   -1.1625848   -2.9184747 
H    -0.5265000    0.8760526   -3.4424173 
Pd   -0.3842095   -0.2468145   -0.7786839 
P     1.8112104   -0.3534804    0.0847249 
P    -1.6563522    0.1507795    1.2132317 
H    -2.6210674   -0.9728384   -2.0999963 
H    -0.4631080   -2.1156815   -2.5947929 
C    -4.6713666    3.4499540   -2.3938910 
C    -3.2756280    3.6098781   -2.3665430 
C    -2.4398770    2.4900181   -2.3137243 
C    -2.9796827    1.1809598   -2.2894678 
C    -4.3848855    1.0366514   -2.3233104 
C    -5.2212946    2.1595862   -2.3759520 
H    -5.3254001    4.3269637   -2.4309232 
H    -2.8386667    4.6138603   -2.3759583 
H    -1.3551252    2.6260298   -2.2523867 
H    -4.8240111    0.0329993   -2.3238722 
H    -6.3075709    2.0257107   -2.4075356 
C     3.2836393   -1.6677567   -5.6146660 
C     2.5837129   -2.7766747   -5.1161935 
C     1.5528392   -2.5953037   -4.1871248 
C     1.1799872   -1.2997432   -3.7579392 
C     1.9088717   -0.1924650   -4.2549335 
C     2.9503015   -0.3768190   -5.1699560 
H     4.0915167   -1.8072469   -6.3399373 
H     2.8435269   -3.7861805   -5.4499676 
H     1.0024426   -3.4642518   -3.8091861 
H     1.6568709    0.8211822   -3.9282597 
H     3.5012106    0.4911038   -5.5466110 
Fe    0.8826080   -0.7102793    3.3126379 
C    -0.7939582    0.2989605    2.8150273 
C     0.2892726    1.2086364    3.1238331 
H     0.7065976    1.9555607    2.4513963 
C     0.7141497    0.9716242    4.4710950 
H     1.5275636    1.4888652    4.9826453 
C    -0.0856243   -0.0860926    5.0110317 
H     0.0125608   -0.5229375    6.0063215 
C    -1.0121245   -0.5067628    4.0028787 
C     1.9508524   -1.1988875    1.6865457 
C     1.0906145   -2.2954242    2.0726959 
H     0.3225602   -2.7372822    1.4379860 
C     1.4282755   -2.6881789    3.4074019 
H     0.9356380   -3.4686770    3.9897574 
C     2.4997607   -1.8496159    3.8586071 
H     2.9631376   -1.8766124    4.8465267 
C     2.8315436   -0.9346847    2.8057962 
H    -1.7391849   -1.3111292    4.1182952 
H     3.5980284   -0.1600281    2.8609000 
C     2.5766045    1.3496544    0.4224183 
C     4.0099695    1.3012456   -0.1716950 
C     4.4618521   -0.1618715   -0.3003453 
C     3.2876992   -0.9485301   -0.9187321 
H     2.6420601    1.3781208    1.5240329 
H     4.0083403    1.7571297   -1.1770827 
H     4.7068323    1.8921293    0.4470319 
H     5.3651985   -0.2452613   -0.9296323 
H     4.7200487   -0.5808955    0.6892232 
H     3.0768833   -0.5078257   -1.9140487 
C    -2.9254176   -1.2093674    1.5678097 
C    -4.1642240   -0.7292469    0.7934088 
C    -4.3515978    0.7442702    1.1748038 
C    -3.0003682    1.4934937    1.0429807 
H    -3.1537628   -1.0379296    2.6369826 
H    -4.0112424   -0.8366298   -0.2942300 
H    -5.0510285   -1.3300209    1.0588135 
H    -5.1042519    1.2432405    0.5403289 
H    -4.7115038    0.7974650    2.2181837 
H    -2.8865816    1.7709083   -0.0163623 
C    -2.9402362    2.8240215    1.8388068 
H    -3.8570597    3.3525226    1.5056188 
C    -2.4989099   -2.6878867    1.4299985 
H    -1.6090460   -2.8092018    2.0756641 
C     1.7033327    2.5569171   -0.0137994 
C     3.4986211   -2.4684157   -1.1443419 
H     2.5382876   -2.8661116   -1.5268583 
H     0.6854717    2.3656913    0.3775940 
C    -3.0287562    2.6911058    3.3692678 
H    -3.1800207    3.6859812    3.8227393 
H    -3.8757547    2.0562082    3.6817172 
H    -2.1080366    2.2646359    3.7984074 
C    -1.7507425    3.7006168    1.4141100 
H    -1.8254590    4.7057338    1.8637571 
H    -0.7942971    3.2650393    1.7472721 
H    -1.7107660    3.8168091    0.3170518 
C    -2.1070885   -3.1012749    0.0048208 
H    -2.9638138   -3.0298627   -0.6891420 
H    -1.2959129   -2.4512354   -0.3864559 
H    -1.7455757   -4.1438029   -0.0149748 
C    -3.5910866   -3.6190856    1.9936366 
H    -3.2315682   -4.6621858    2.0206867 
H    -3.8752270   -3.3309953    3.0215542 
H    -4.5022046   -3.5975305    1.3700432 
C     3.8940498   -3.2798154    0.1028264 
H     4.0723456   -4.3308484   -0.1840785 
H     4.8304735   -2.8996742    0.5484017 
H     3.1200230   -3.2725849    0.8837547 
C     4.5609023   -2.6700417   -2.2453200 
H     4.3566604   -2.0433086   -3.1280816 
H     5.5691720   -2.4190467   -1.8698589 
H     4.5827283   -3.7235771   -2.5732886 
C     1.5578332    2.7018241   -1.5359709 
H     0.8428805    3.5071790   -1.7763453 
H     2.5142266    2.9528693   -2.0269380 
H     1.1750492    1.7643961   -1.9788382 
C     2.2195523    3.8587962    0.6238968 
H     1.5537489    4.7044092    0.3785777 
H     2.2700462    3.7756145    1.7249055 
H     3.2315543    4.1097523    0.2588867 
