134
Energy =
C     2.9763476    0.7995804   -1.6622867 
C     1.9991657    0.7239691   -2.6891590 
C     0.9744904    1.6857163   -2.8451564 
H     1.9881237   -0.1668157   -3.3302688 
Pd    0.8427078    0.6359341   -0.8209751 
P    -1.4976315    0.6522708   -0.7574221 
P     1.2137057   -0.1360586    1.4185885 
H     3.2087936    1.7916297   -1.2497258 
H     1.1381030    2.6824570   -2.4083463 
C     6.2156526   -2.0273925   -1.7578782 
C     4.8984383   -2.4655562   -1.9723710 
C     3.8340664   -1.5610705   -1.8945604 
C     4.0672565   -0.1960983   -1.6140013 
C     5.3937805    0.2282804   -1.3750445 
C     6.4575222   -0.6799172   -1.4489517 
H     7.0482140   -2.7354572   -1.8184522 
H     4.7009867   -3.5203414   -2.1917616 
H     2.8059301   -1.9106929   -2.0346215 
H     5.5909425    1.2825060   -1.1498719 
H     7.4808783   -0.3326341   -1.2735941 
C    -1.7744317    1.6104929   -6.1544240 
C    -1.2939364    0.4023865   -5.6226034 
C    -0.4157965    0.4141843   -4.5342933 
C    -0.0028596    1.6339081   -3.9486816 
C    -0.5070927    2.8401076   -4.4825043 
C    -1.3782723    2.8265994   -5.5795926 
H    -2.4695782    1.6028846   -6.9988946 
H    -1.6083186   -0.5510446   -6.0596805 
H    -0.0435438   -0.5314980   -4.1278612 
H    -0.2110656    3.7953790   -4.0370468 
H    -1.7595885    3.7711193   -5.9799403 
Fe   -1.0348039   -4.0884442   -1.0202448 
C    -0.9359458   -2.0486575   -1.1507031 
C    -0.4748649   -2.4977939    0.1535462 
C     0.6158049   -3.4170081   -0.0660115 
H     1.1444790   -3.9638005    0.7155154 
C     0.8485647   -3.5231494   -1.4779974 
H     1.5855837   -4.1687981   -1.9595059 
C    -0.1033513   -2.6821244   -2.1448077 
H    -0.2140773   -2.5723367   -3.2256539 
C    -2.5844485   -4.9301387   -2.0676525 
H    -3.1482207   -4.4725382   -2.8827009 
C    -2.9088872   -4.8723718   -0.6709181 
H    -3.7775586   -4.3749896   -0.2369085 
C    -1.9080257   -5.6076192    0.0488902 
H    -1.8596995   -5.7451527    1.1307385 
C    -0.9701063   -6.1259196   -0.9035129 
H    -0.0786247   -6.7117347   -0.6716656 
C    -1.3875083   -5.7074713   -2.2111852 
H    -0.8704368   -5.9218482   -3.1484199 
C    -0.9573921   -1.9959391    1.4717424 
C    -0.3001260   -0.9260784    2.1490040 
C    -0.8373658   -0.4691713    3.3716435 
H    -0.3823086    0.3732777    3.8953244 
C    -1.9767328   -1.0559597    3.9361024 
H    -2.3761367   -0.6684792    4.8778294 
C    -2.6094718   -2.1200827    3.2829556 
H    -3.5054584   -2.5795474    3.7109176 
C    -2.0978047   -2.5749101    2.0624574 
H    -2.5771736   -3.4013940    1.5338409 
C    -2.3225148    1.1017057    0.8385077 
C    -1.7584667    2.1919307    1.5278325 
H    -0.8346813    2.6539510    1.1659449 
C    -2.3685030    2.6961317    2.6835418 
C    -3.5355181    2.1084504    3.1885051 
H    -4.0021603    2.4959085    4.0985585 
C    -4.0821928    1.0082421    2.5164179 
C    -3.4970005    0.5175281    1.3416567 
H    -3.9645617   -0.3306273    0.8490668 
C    -2.3717968    1.8937768   -1.8231490 
C    -3.2817053    1.5518423   -2.8382676 
H    -3.4940536    0.5122885   -3.0920270 
C    -3.9279072    2.5557437   -3.5738532 
C    -3.6780829    3.9099177   -3.3172931 
H    -4.1778741    4.6889707   -3.8989281 
C    -2.7486705    4.2500513   -2.3265828 
C    -2.1003557    3.2540751   -1.5864177 
H    -1.3721311    3.5569681   -0.8288604 
C    -2.0144297   -1.0239993   -1.4552747 
H    -1.9092697   -0.7930299   -2.5321509 
C    -3.4550831   -1.5093085   -1.2103565 
H    -3.6832619   -2.3021063   -1.9392576 
H    -3.5559524   -1.9453172   -0.2062850 
H    -4.1995352   -0.7048490   -1.3314024 
C    -4.9154002    2.1810354   -4.6594670 
F    -4.7503236    2.9568466   -5.7583396 
F    -4.7700421    0.8892310   -5.0450047 
F    -6.1909172    2.3397159   -4.2436415 
C    -2.3445660    5.6940335   -2.1257194 
F    -1.9899145    5.9392516   -0.8430045 
F    -1.2628394    5.9937776   -2.8994296 
F    -3.3287432    6.5490415   -2.4631000 
C    -1.7171998    3.8240133    3.4494487 
F    -2.6207545    4.6602356    3.9902918 
F    -0.9658712    3.3263891    4.4754801 
F    -0.8829502    4.5507019    2.6661868 
C    -5.3088476    0.3330302    3.0947645 
F    -5.6531942   -0.7748024    2.3951951 
F    -5.0826253   -0.0538361    4.3772579 
F    -6.3731341    1.1614105    3.1100045 
H     0.5725237    1.7995420    2.6581962 
C     2.6095268    3.6882136    2.5651290 
C     2.4270606    2.3945320    1.7516361 
C     1.5753363    1.3538180    2.5208430 
C     2.1586984    1.0838944    3.9311956 
C     2.3274428    2.3965215    4.7211687 
C     3.1995072    3.4031453    3.9551064 
H     1.6276200    4.1838111    2.6796013 
H     3.2556850    4.3862345    2.0028373 
H     3.4168382    1.9617549    1.5140950 
H     1.9398257    2.6177596    0.7812365 
H     1.5242036    0.3793929    4.4944885 
H     3.1460319    0.6032312    3.8397618 
H     1.3355740    2.8425381    4.9140975 
H     2.7725162    2.1679871    5.7060673 
H     4.2236547    2.9945088    3.8441100 
H     3.2939324    4.3421393    4.5286304 
H     2.4998842   -2.0225510    0.7408256 
C     3.4142002   -3.4697472    2.9126047 
C     2.3451101   -2.3607985    2.8761899 
C     2.5746245   -1.4240128    1.6681677 
C     3.9981739   -0.8272080    1.6998761 
C     5.0477237   -1.9535050    1.7190043 
C     4.8377493   -2.8913449    2.9168082 
H     3.2897230   -4.1202384    2.0230942 
H     3.2486611   -4.1101786    3.7975462 
H     2.3905762   -1.7743810    3.8124860 
H     1.3379990   -2.8097362    2.8392282 
H     4.1619864   -0.1719889    0.8329559 
H     4.1327357   -0.2102537    2.6036885 
H     4.9748819   -2.5289535    0.7782019 
H     6.0591593   -1.5102818    1.7378984 
H     5.0003073   -2.3298861    3.8580513 
H     5.5826656   -3.7069262    2.9030865 
