124
Energy =
C    -0.6248473    0.4794517   -3.2143800 
C     0.5104607   -0.3649468   -3.1296508 
C     0.4036449   -1.7129112   -2.6799498 
H     1.5118861    0.0651416   -3.2598415 
Pd   -0.3227158   -0.3062849   -1.1043338 
P    -0.1445971   -1.6320347    0.7800795 
P    -0.8270593    1.5280139    0.2890339 
H    -1.6059562   -0.0112080   -3.3092910 
H    -0.5284676   -2.2523132   -2.9037195 
C    -0.6625753    4.6003860   -4.4400793 
C    -1.8578698    3.8851702   -4.2813324 
C    -1.8279064    2.5505334   -3.8639853 
C    -0.6016340    1.8974276   -3.6031001 
C     0.5957508    2.6369311   -3.7557447 
C     0.5641355    3.9711174   -4.1710276 
H    -0.6847417    5.6439502   -4.7697569 
H    -2.8181354    4.3692400   -4.4847768 
H    -2.7654113    1.9954781   -3.7485283 
H     1.5652398    2.1645552   -3.5690444 
H     1.5021262    4.5223133   -4.2951322 
C     3.8042570   -4.2301207   -1.8726980 
C     3.8953671   -2.8437727   -1.6613204 
C     2.7987662   -2.0197153   -1.9349163 
C     1.5826150   -2.5626478   -2.4142800 
C     1.5053736   -3.9565113   -2.6205320 
C     2.6096439   -4.7795911   -2.3597428 
H     4.6537249   -4.8802239   -1.6430543 
H     4.8175462   -2.4045589   -1.2672971 
H     2.8764437   -0.9410729   -1.7508412 
H     0.5702850   -4.3962790   -2.9838043 
H     2.5322215   -5.8593234   -2.5204223 
Fe   -3.5369339   -1.5162354    0.7191468 
C    -1.7229827   -1.5238036    1.6518750 
C    -2.4395495   -0.2765877    1.8875096 
C    -3.6770579   -0.6308680    2.5380820 
C    -3.7419955   -2.0532846    2.6818430 
C    -2.5461995   -2.6123422    2.1335900 
C    -4.3706930   -2.8275818   -0.6288000 
C    -5.3711198   -1.9960781   -0.0232189 
C    -5.0498678   -0.6251114   -0.3122990 
C    -3.8483674   -0.6089270   -1.0964346 
C    -3.4337754   -1.9689039   -1.2924658 
C     1.1328757   -1.1281708    1.9960122 
C     0.8177040   -0.8951281    3.3423482 
C     1.8185718   -0.4526174    4.2231843 
C     3.1373174   -0.2911894    3.7846107 
C     3.4493774   -0.5439071    2.4384912 
C     2.4508289   -0.9327837    1.5408916 
C     0.1451065   -3.4296409    0.5383286 
C     1.3300084   -4.0782353    0.9302263 
C     1.5031152   -5.4396507    0.6488136 
C     0.5034982   -6.1752781   -0.0066709 
C    -0.6695499   -5.5222673   -0.3992211 
C    -0.8441939   -4.1563595   -0.1419119 
C    -2.0483426    1.1753318    1.6928417 
H    -4.4494691    0.0777689    2.8441984 
H    -4.5732670   -2.6185766    3.1063520 
H    -2.2957498   -3.6726946    2.0879425 
H    -4.3228492   -3.9168746   -0.5841483 
H    -6.2186801   -2.3431158    0.5704604 
H    -5.6159959    0.2473925    0.0202412 
H    -3.3372681    0.2733560   -1.4847879 
H    -2.5614234   -2.2900127   -1.8635317 
H    -0.2021515   -1.0466220    3.7092321 
H     2.6980783   -1.0907484    0.4886047 
H     2.1308439   -3.5366642    1.4386747 
H    -1.7633749   -3.6544612   -0.4506549 
H    -2.9457466    1.6587372    1.2705488 
C    -1.7783212    1.8778939    3.0418026 
H    -2.6854121    1.8104480    3.6659779 
H    -0.9585882    1.4028464    3.6008801 
H    -1.5485018    2.9462097    2.8943189 
C     1.4273792   -0.0791917    5.6355407 
F     0.8020174    1.1392132    5.6414098 
F     0.5559557   -0.9636288    6.1648833 
F     2.4900258    0.0158013    6.4561719 
C     4.8848666   -0.4414414    1.9717907 
F     4.9656482   -0.2770469    0.6232606 
F     5.5274778    0.6013886    2.5497843 
F     5.5781955   -1.5601536    2.2761284 
C     2.7843468   -6.1398854    1.0537824 
F     3.2212606   -6.9609752    0.0664321 
F     3.7749179   -5.2567801    1.3202843 
F     2.6051768   -6.8999367    2.1563791 
C    -1.7529642   -6.2351072   -1.1747034 
F    -2.9636720   -6.0920783   -0.5702888 
F    -1.8788824   -5.6964343   -2.4198278 
F    -1.5136450   -7.5498051   -1.3161259 
H     3.9109535    0.0408912    4.4812293 
H     0.6484277   -7.2351758   -0.2303876 
C    -2.6715275    5.4259184   -1.4279514 
C    -3.4953303    4.2991005   -1.2303095 
C    -2.9114638    3.1303693   -0.7213178 
C    -1.5362368    3.0826376   -0.3976795 
C    -0.7356040    4.2120666   -0.6303472 
C    -1.2968331    5.3981004   -1.1466486 
H    -3.1152455    6.3467738   -1.8249311 
H    -3.5488266    2.2512299   -0.5725992 
H     0.3328329    4.1866927   -0.3958889 
C    -4.9611370    4.3430683   -1.5986794 
H    -5.0856658    4.4043247   -2.6962348 
H    -5.4966106    3.4444087   -1.2496788 
H    -5.4567933    5.2299325   -1.1668781 
C    -0.4154149    6.6017005   -1.3887788 
H     0.0779850    6.9271191   -0.4553883 
H     0.3833563    6.3552002   -2.1118744 
H    -0.9896177    7.4530510   -1.7881788 
C     3.5572520    2.7329712    1.2413550 
C     2.6535280    2.7718607    2.3178525 
C     1.3068581    2.4182060    2.0931071 
C     0.8774422    2.0092297    0.8183398 
C     1.8168257    1.9678794   -0.2376724 
C     3.1573066    2.3368892   -0.0480349 
H     4.6061870    2.9966366    1.4171528 
H     0.6187972    2.4567103    2.9360682 
H     1.4856481    1.6481431   -1.2321735 
C     3.1178931    3.1957609    3.6935497 
H     4.1350352    2.8202599    3.8974705 
H     3.1540762    4.2984904    3.7708432 
H     2.4413951    2.8268942    4.4810547 
C     4.1403449    2.3122335   -1.1965102 
H     4.3166942    3.3329761   -1.5834900 
H     5.1136421    1.9049551   -0.8772319 
H     3.7682518    1.6970997   -2.0334736 
