132
Energy =
C     1.4469717   -3.0932126   -0.4156698 
C     1.2140221   -3.1987726    0.9820722 
C    -0.0797852   -3.4174113    1.5176341 
H     2.0346749   -2.9664152    1.6724242 
Pd   -0.0094134   -1.5113752    0.2753201 
P    -1.6108272   -0.2278429    1.4592096 
P     0.2702194    0.0885408   -1.3916233 
H     0.7454879   -3.6081176   -1.0883518 
H    -0.8192624   -3.9130810    0.8703243 
C     5.2882594   -2.2550039   -2.1853188 
C     5.0513320   -1.9171791   -0.8425495 
C     3.8087253   -2.1794256   -0.2561527 
C     2.7715875   -2.7965337   -0.9960332 
C     3.0347363   -3.1497497   -2.3377942 
C     4.2744866   -2.8768977   -2.9272970 
H     6.2600998   -2.0443584   -2.6433272 
H     5.8425189   -1.4470829   -0.2488978 
H     3.6412512   -1.8898212    0.7870067 
H     2.2559981   -3.6499692   -2.9206353 
H     4.4504089   -3.1577467   -3.9697423 
C    -1.0470647   -3.5674485    5.7145318 
C     0.1058347   -2.8855986    5.2884561 
C     0.4380222   -2.8380252    3.9308668 
C    -0.3758325   -3.4705160    2.9614139 
C    -1.5258725   -4.1623577    3.4079221 
C    -1.8579558   -4.2107155    4.7681543 
H    -1.3056831   -3.6016761    6.7776523 
H     0.7477675   -2.3842078    6.0205902 
H     1.3294087   -2.2846055    3.6180317 
H    -2.1616795   -4.6730368    2.6757513 
H    -2.7511968   -4.7561828    5.0897601 
Fe   -2.4426592    2.2589002   -2.5509159 
C    -1.3937251    0.6452620   -1.8639879 
C    -2.4392307    1.0127863   -0.9216640 
C    -3.6936651    0.9489450   -1.6279515 
C    -3.4407742    0.5436621   -2.9789575 
C    -2.0288728    0.3691186   -3.1372083 
C    -2.1377798    4.2068199   -1.9953895 
C    -1.2168115    3.8348632   -3.0362929 
C    -1.9788440    3.4124202   -4.1738747 
C    -3.3712480    3.5286388   -3.8424087 
C    -3.4699557    4.0176538   -2.4956033 
C     1.0441605   -0.4213748   -2.9654322 
C     0.5149237   -1.5503060   -3.6230073 
C     1.0024105   -1.9545473   -4.8736799 
C     2.0698501   -1.2182658   -5.4426936 
C     2.6344998   -0.0964688   -4.7941757 
C     2.0995738    0.2944789   -3.5533408 
C     1.2683480    1.4545978   -0.7048176 
C     0.7407350    2.7352558   -0.4838149 
C     1.4848340    3.7243315    0.1865118 
C     2.7805324    3.3877424    0.6388149 
C     3.3488547    2.1114060    0.4001754 
C     2.5751741    1.1531609   -0.2686083 
C    -2.2447398    1.3140361    0.5464835 
H    -4.6740828    1.1972672   -1.2196828 
H    -4.1902733    0.4344061   -3.7647988 
H    -1.5126755    0.0808902   -4.0531906 
H    -1.8800935    4.5806374   -1.0025866 
H    -0.1274235    3.8548182   -2.9743205 
H    -1.5709062    3.0505552   -5.1192144 
H    -4.2088784    3.2665182   -4.4912617 
H    -4.3954952    4.2035330   -1.9475553 
H    -0.3023035   -2.1171767   -3.1592615 
H     2.5101287    1.1775948   -3.0522438 
H    -0.2644482    2.9581306   -0.8500180 
H     2.9956779    0.1586124   -0.4512820 
H    -1.3713248    1.9839294    0.6497738 
H    -0.8012209   -0.5269010    3.6671583 
H    -2.5144328   -2.1902496    2.3482285 
C    -4.8958508   -2.8103152    1.1222094 
C    -3.8729941   -1.7241755    0.7457309 
C    -3.0493258   -1.2944002    1.9807499 
C    -3.9473609   -0.8243928    3.1460459 
C    -4.9727955   -1.9214813    3.4972283 
C    -5.8020327   -2.3446685    2.2739367 
H    -4.3550041   -3.7277926    1.4282658 
H    -5.4990017   -3.0786310    0.2362767 
H    -4.4085139   -0.8497655    0.3327020 
H    -3.1962072   -2.0806741   -0.0540802 
H    -3.3304989   -0.6041915    4.0344395 
H    -4.4809117    0.1044569    2.8785568 
H    -4.4305313   -2.8010992    3.8951163 
H    -5.6322327   -1.5627408    4.3077727 
H    -6.4134101   -1.4862552    1.9308369 
H    -6.5114396   -3.1446188    2.5514679 
C    -0.6053589    1.8418275    5.0811615 
C    -1.3789873    1.5605034    3.7780661 
C    -0.7511515    0.3711632    3.0185488 
C     0.7395679    0.6680993    2.7265433 
C     1.5191933    0.9715716    4.0165017 
C     0.8788193    2.1258677    4.8030728 
H    -0.6951765    0.9637624    5.7505638 
H    -1.0706178    2.6928312    5.6102392 
H    -1.3350203    2.4622553    3.1369465 
H    -2.4409357    1.3744140    4.0067017 
H     1.1960994   -0.1845228    2.1871464 
H     0.8125964    1.5349141    2.0422939 
H     1.5392093    0.0649116    4.6527172 
H     2.5697573    1.2054622    3.7639390 
H     0.9640719    3.0590958    4.2121102 
H     1.4230957    2.2984308    5.7488570 
C    -3.4785477    2.0146936    1.1414946 
H    -3.6802276    2.9246025    0.5489242 
H    -4.3738817    1.3756707    1.0880854 
H    -3.3319685    2.3085184    2.1891256 
C     0.4290472   -3.1445696   -5.6057460 
H    -0.5500829   -3.4342556   -5.1911866 
H     0.3168922   -2.9227123   -6.6799043 
H     1.0989590   -4.0221061   -5.5285409 
C     3.7690718    0.6689050   -5.4324299 
H     3.7842694    1.7162132   -5.0893982 
H     4.7450628    0.2207230   -5.1655464 
H     3.6826401    0.6495653   -6.5310142 
O     2.5054765   -1.5673250   -6.7028212 
C     3.6372018   -2.4421457   -6.7722890 
H     3.8386304   -2.6039792   -7.8415881 
H     4.5285490   -1.9912546   -6.2966294 
H     3.4223054   -3.4154032   -6.2903767 
C     0.9258706    5.1117176    0.4036510 
H     0.2708589    5.1465925    1.2950102 
H     1.7395486    5.8385875    0.5535040 
H     0.3231360    5.4336844   -0.4615052 
C     4.7529055    1.8126654    0.8697529 
H     4.7802249    1.6510742    1.9639542 
H     5.1458929    0.9056886    0.3844063 
H     5.4244045    2.6602864    0.6552341 
O     3.5593238    4.3391926    1.2602867 
C     3.3558265    4.4927321    2.6703573 
H     4.0637956    5.2655625    3.0044375 
H     2.3229760    4.8193317    2.8970991 
H     3.5597095    3.5480460    3.2093537 
