110
Energy =
C     2.1576345    2.0001832    1.0019251 
C     2.5573123    2.0985739   -0.3531404 
C     1.8590812    2.9149982   -1.2707531 
H     3.4029397    1.4903531   -0.6984829 
Pd    0.5436523    1.1491578   -0.3604757 
P    -1.2696977    0.7711254   -1.9157592 
P    -0.0824274   -0.4622458    1.1973590 
H     1.5049936    2.7998348    1.3860828 
H     1.2263657    3.7047004   -0.8437933 
C     4.5718935    0.1526171    4.0422744 
C     4.4848559   -0.4441183    2.7725115 
C     3.6927099    0.1356335    1.7763853 
C     2.9570709    1.3144786    2.0348361 
C     3.0423985    1.8948636    3.3192987 
C     3.8518498    1.3261317    4.3104481 
H     5.1972994   -0.2989539    4.8192657 
H     5.0382983   -1.3643934    2.5581550 
H     3.6335503   -0.3388349    0.7924660 
H     2.4682928    2.8000685    3.5440382 
H     3.8987055    1.7922564    5.2992477 
C     3.1188457    3.6886173   -5.3097267 
C     3.5639219    2.5282869   -4.6536884 
C     3.1622044    2.2613456   -3.3419684 
C     2.3029114    3.1506654   -2.6519201 
C     1.8782483    4.3235899   -3.3204655 
C     2.2790614    4.5878687   -4.6352252 
H     3.4320900    3.8930878   -6.3384856 
H     4.2265549    1.8270612   -5.1714852 
H     3.5078126    1.3432304   -2.8556232 
H     1.2306474    5.0345912   -2.7959804 
H     1.9398991    5.5017308   -5.1336842 
Fe   -3.0572460   -2.5101626    1.0661829 
C    -1.8512658   -0.8743029    1.1966658 
C    -2.7523927   -0.7743272    0.0590976 
C    -4.0956070   -0.8353931    0.5894917 
C    -4.0322814   -0.9888482    2.0115616 
C    -2.6565060   -1.0267915    2.3931219 
C    -3.1375307   -4.0075976   -0.3339617 
C    -2.0150156   -4.1982136    0.5344081 
C    -2.5071434   -4.3050285    1.8808726 
C    -3.9361361   -4.1791103    1.8396579 
C    -4.3261323   -3.9925587    0.4705413 
C     0.1363151    0.1144562    2.9327803 
C    -0.5277960    1.3134893    3.2748159 
C    -0.3968161    1.8558937    4.5551357 
C     0.4009173    1.2015578    5.5099905 
C     1.0538171    0.0066326    5.1820289 
C     0.9316582   -0.5313583    3.8940357 
C     0.8737001   -2.0226423    1.0524421 
C     0.6794197   -3.0772527    1.9671862 
C     1.4275164   -4.2538409    1.8569263 
C     2.3624659   -4.3925107    0.8169026 
C     2.5424679   -3.3596969   -0.1158636 
C     1.8038919   -2.1765272    0.0086542 
C    -2.3905566   -0.7027480   -1.4142543 
H    -5.0198455   -0.8132059    0.0124396 
H    -4.8876170   -1.0968429    2.6806612 
H    -2.2684155   -1.1228347    3.4080016 
H    -3.0921635   -3.8940513   -1.4188366 
H    -0.9714611   -4.2509106    0.2230606 
H    -1.9109797   -4.4689636    2.7796066 
H    -4.6076102   -4.2007319    2.6998533 
H    -5.3455795   -3.8452760    0.1091049 
H    -1.1504964    1.8242176    2.5308645 
H     1.4953322   -1.4324863    3.6421903 
H    -0.0725829   -2.9833326    2.7556860 
H     1.9457760   -1.3617162   -0.7089384 
H    -1.6991131   -1.5427001   -1.6196504 
C    -3.6724722   -0.9033967   -2.2500458 
H    -4.1158391   -1.8761096   -1.9785277 
H    -4.4211506   -0.1282761   -2.0278758 
H    -3.4932899   -0.9013476   -3.3292216 
C     0.6558711    1.8486795    6.8515703 
F     1.7636455    2.6424883    6.7893392 
F    -0.3718348    2.6337694    7.2407517 
F     0.8777959    0.9347923    7.8207779 
H    -0.9079882    2.7863589    4.8184314 
H     1.6839333   -0.4914448    5.9237794 
H     1.2784659   -5.0734329    2.5657083 
H     3.2578614   -3.4838463   -0.9339699 
C     3.2160993   -5.6411419    0.7275377 
F     3.5264194   -5.9378261   -0.5550843 
F     4.3828195   -5.4731249    1.3965265 
F     2.5916605   -6.7124266    1.2645348 
C    -0.5290003    0.2201836   -3.6146938 
C    -2.4037966    2.3105235   -2.0476994 
C    -1.4421476   -0.6113639   -4.5380564 
H    -0.8814226   -0.8149383   -5.4689212 
H    -1.7121351   -1.5877088   -4.1038937 
H    -2.3598021   -0.0717581   -4.8218958 
C    -3.3341740    2.3193079   -3.2803755 
H    -3.9790809    3.2157493   -3.2253576 
H    -2.7687890    2.3807483   -4.2234816 
H    -3.9933235    1.4414392   -3.3278781 
C    -0.0640912    1.4668622   -4.3904297 
H     0.5772929    1.1476044   -5.2312553 
H    -0.9108044    2.0291615   -4.8143067 
H     0.5320837    2.1424339   -3.7652455 
C     0.7018015   -0.6415313   -3.2475507 
H     1.1922050   -0.9924058   -4.1740317 
H     1.4382582   -0.0557963   -2.6692937 
H     0.4220525   -1.5331604   -2.6579661 
C    -3.2367421    2.3381354   -0.7438550 
H    -3.7542372    3.3120464   -0.6711734 
H    -4.0021364    1.5484856   -0.7119087 
H    -2.5946381    2.2265410    0.1493608 
C    -1.5239853    3.5791687   -2.0691183 
H    -2.1806275    4.4653957   -2.1428483 
H    -0.9404140    3.6680357   -1.1375393 
H    -0.8283071    3.6023366   -2.9209164 
