98
Energy =
C    -0.6708565   -2.9386366    0.4974456 
C    -1.5032837   -2.2472661    1.4166641 
C    -2.5729934   -1.4448187    0.9515496 
H    -1.2552324   -2.2514163    2.4853456 
Pd   -0.5566799   -0.6955556    0.1678808 
P    -1.0748259    1.6029680    0.1053887 
P     1.5252762   -0.7256762   -0.9617877 
H    -1.1148344   -3.1776260   -0.4792831 
H    -2.9587987   -1.6668212   -0.0551121 
C     2.6425477   -5.4639202    1.5706126 
C     2.2350632   -4.4412835    2.4451006 
C     1.1633485   -3.6091189    2.1079651 
C     0.4644419   -3.7902132    0.8911359 
C     0.8825992   -4.8255407    0.0234510 
C     1.9625743   -5.6525401    0.3581656 
H     3.4864757   -6.1089098    1.8350981 
H     2.7653313   -4.2867783    3.3903324 
H     0.8816242   -2.7949642    2.7841339 
H     0.3480571   -4.9843738   -0.9199067 
H     2.2698738   -6.4499904   -0.3261246 
C    -5.3670203    0.7056787    3.4163341 
C    -4.0770476    0.4343436    3.9045565 
C    -3.1607071   -0.2730031    3.1200721 
C    -3.5098024   -0.7158528    1.8230530 
C    -4.8130790   -0.4421477    1.3484824 
C    -5.7341468    0.2567511    2.1391238 
H    -6.0825882    1.2593709    4.0324786 
H    -3.7861515    0.7768604    4.9030568 
H    -2.1574830   -0.4693368    3.5121487 
H    -5.1008925   -0.7788439    0.3462854 
H    -6.7404655    0.4537100    1.7557583 
Fe    1.4738229    2.5178814   -1.8855197 
C     2.3888220    0.8530793   -1.2574849 
C     2.5292105    1.9031063   -0.2716445 
H     2.1789183    1.8532323    0.7591768 
C     3.1960571    3.0133553   -0.8834586 
H     3.4185747    3.9676224   -0.4029798 
C     3.4900270    2.6641043   -2.2413276 
H     3.9752364    3.3053155   -2.9792633 
C     3.0058552    1.3362407   -2.4790272 
C    -0.4515943    2.5136446   -1.3401411 
C    -0.3011900    1.9299564   -2.6564928 
H    -0.5785856    0.9102266   -2.9300397 
C     0.2927841    2.9089303   -3.5177039 
H     0.5612314    2.7601352   -4.5650228 
C     0.5054863    4.1044136   -2.7559722 
H     0.9646319    5.0247277   -3.1212640 
C     0.0463861    3.8739218   -1.4174767 
H     3.0781080    0.8018887   -3.4271249 
H     0.0913541    4.5961303   -0.6009785 
C    -0.4525110    2.5889838    1.5902963 
C    -1.6744477    3.4259005    2.0639121 
C    -2.6612734    3.6100178    0.8982540 
C    -2.8386035    2.2265733    0.2405402 
H     0.3289889    3.2551882    1.1824350 
H    -2.1857293    2.8735929    2.8748097 
H    -1.3492912    4.3933375    2.4832945 
H    -3.6290202    4.0016967    1.2575834 
H    -2.2737107    4.3356892    0.1583337 
H    -3.3231956    1.5619575    0.9768651 
C     1.4243340   -1.4770467   -2.6921686 
C     2.6190723   -2.4717609   -2.7699444 
C     3.6842767   -2.1027837   -1.7224602 
C     2.9453554   -1.8176555   -0.3982244 
H     1.5869740   -0.6257762   -3.3762678 
H     2.2408538   -3.4869724   -2.5455087 
H     3.0415910   -2.5017358   -3.7888727 
H     4.4129192   -2.9227049   -1.5966525 
H     4.2541379   -1.2072689   -2.0352917 
H     2.4741361   -2.7548850   -0.0546383 
C     3.7792476   -1.2261467    0.7495373 
H     4.1885005   -0.2456305    0.4424287 
H     3.1078258   -1.0334423    1.6090051 
C     4.9277931   -2.1434001    1.1939774 
H     5.4519236   -1.7160780    2.0660310 
H     4.5513843   -3.1423221    1.4749159 
H     5.6728184   -2.2749224    0.3902403 
C     0.0633880   -2.1073994   -3.0440074 
H    -0.0998181   -2.9909893   -2.3999105 
H    -0.7495879   -1.3955434   -2.8009595 
C    -0.0346056   -2.5208868   -4.5189018 
H    -1.0244646   -2.9543093   -4.7421186 
H     0.1129124   -1.6506152   -5.1839047 
H     0.7282643   -3.2754368   -4.7784215 
C     0.1733490    1.7115161    2.6925230 
H     0.9385171    1.0460054    2.2482126 
H    -0.6074689    1.0410645    3.0962816 
C     0.7980272    2.5326295    3.8283346 
H     1.2509833    1.8736163    4.5887986 
H     1.5903582    3.2004376    3.4435708 
H     0.0457548    3.1619199    4.3349949 
C    -3.6228406    2.1705886   -1.0797712 
H    -3.6239330    1.1246405   -1.4447616 
H    -3.0951839    2.7671605   -1.8475781 
C    -5.0700509    2.6662681   -0.9445148 
H    -5.1061157    3.7373163   -0.6803420 
H    -5.6163621    2.5394021   -1.8947446 
H    -5.6109329    2.1072484   -0.1608703 
