132
Energy =
C     2.2268724   -1.6228537   -2.3074097 
C     2.2514237   -0.2155093   -2.4237840 
C     2.6980603    0.6207675   -1.3564545 
H     1.8005192    0.2487652   -3.3106636 
Pd    0.9364673   -0.5627015   -0.7011335 
P     0.4547313    0.6900009    1.1998114 
P    -1.0914671   -1.7840951   -0.4654066 
H     2.8928898   -2.0760468   -1.5568802 
H     3.4683964    0.2201827   -0.6819195 
C     1.0913869   -4.2869961   -5.4912248 
C     0.4509535   -3.0423677   -5.3651206 
C     0.7981933   -2.1722268   -4.3263529 
C     1.7923646   -2.5291137   -3.3864251 
C     2.4164745   -3.7910567   -3.5163520 
C     2.0760487   -4.6569358   -4.5628980 
H     0.8206401   -4.9650336   -6.3069000 
H    -0.3229342   -2.7495595   -6.0825140 
H     0.2869720   -1.2090912   -4.2339562 
H     3.1864146   -4.0863338   -2.7944285 
H     2.5784297   -5.6255973   -4.6512110 
C     2.5458370    4.9257060   -1.5506354 
C     1.5955139    4.1598748   -2.2470802 
C     1.6361176    2.7628850   -2.1885954 
C     2.6295318    2.0958978   -1.4321931 
C     3.5787338    2.8790082   -0.7418831 
C     3.5383031    4.2774850   -0.8026244 
H     2.5130413    6.0191556   -1.5961571 
H     0.8179091    4.6558885   -2.8379092 
H     0.8745489    2.1818259   -2.7209322 
H     4.3535519    2.3828917   -0.1488529 
H     4.2863810    4.8628329   -0.2594410 
Fe    1.3468136   -2.1796091    2.8513731 
C     0.1940570   -0.5289781    2.5129555 
C    -0.5788101   -1.7591703    2.3891705 
C    -0.4883796   -2.4268631    3.6660738 
C     0.3359227   -1.6549921    4.5462438 
C     0.7659633   -0.4880803    3.8411724 
C     2.1338565   -3.2828584    1.3119404 
C     3.0568369   -2.2562404    1.6960637 
C     3.3761062   -2.4375078    3.0813404 
C     2.6494625   -3.5799710    3.5554690 
C     1.8824981   -4.1050493    2.4598505 
C    -1.0660742    1.7059121    1.1482173 
C    -1.2130513    2.6577973    0.1187295 
C    -2.3897301    3.4114526   -0.0016763 
C    -3.4450100    3.1578381    0.9083179 
C    -3.3255703    2.2058594    1.9469043 
C    -2.1119690    1.5036753    2.0646906 
C     1.7461546    1.8152725    1.8567346 
C     1.5231795    3.1927461    2.0156007 
C     2.5278162    4.0398269    2.5186353 
C     3.7716667    3.4693488    2.8667078 
C     4.0172170    2.0811857    2.7342846 
C     2.9966662    1.2733981    2.2160560 
C    -1.5269805   -2.2592631    1.3147924 
H    -0.9525953   -3.3871248    3.9029559 
H     0.6166535   -1.9264414    5.5654563 
H     1.4116921    0.3018680    4.2260476 
H     1.6990241   -3.4051107    0.3225833 
H     3.4488301   -1.4816459    1.0358629 
H     4.0396426   -1.8091641    3.6782326 
H     2.6633672   -3.9702409    4.5746509 
H     1.2125292   -4.9660037    2.5012871 
H    -0.4005413    2.8123282   -0.5994765 
H    -1.9956634    0.7720010    2.8713836 
H     0.5529750    3.6283610    1.7588712 
H     3.1571286    0.1971121    2.1265795 
H    -1.3942201   -3.3569358    1.2981111 
H    -1.3175443   -3.0822534   -2.4586146 
H    -2.3227728    0.2615990   -0.4178394 
C    -4.6384900    0.2832608   -1.8406194 
C    -3.8262688   -0.9468261   -1.3869209 
C    -2.3488615   -0.5533208   -1.1653294 
C    -1.7760305    0.0082008   -2.4925001 
C    -2.5983955    1.1946231   -3.0222208 
C    -4.0897159    0.8540939   -3.1567413 
H    -4.5993458    1.0596779   -1.0510830 
H    -5.6998413   -0.0007845   -1.9558124 
H    -3.8875315   -1.7184427   -2.1769588 
H    -4.2768578   -1.3731215   -0.4789701 
H    -0.7236441    0.3198358   -2.3352834 
H    -1.7625814   -0.8015116   -3.2479440 
H    -2.4823146    2.0373859   -2.3195318 
H    -2.1833202    1.5257331   -3.9918828 
H    -4.2270544    0.1055537   -3.9620785 
H    -4.6599580    1.7511873   -3.4579714 
C    -2.8184944   -5.3780404   -2.0137202 
C    -2.6789820   -4.1310251   -1.1181623 
C    -1.3431315   -3.3981622   -1.3964009 
C    -0.1731361   -4.3763486   -1.1662611 
C    -0.3050385   -5.6273695   -2.0520289 
C    -1.6421833   -6.3460074   -1.8198511 
H    -2.8631598   -5.0573249   -3.0730714 
H    -3.7775124   -5.8806074   -1.7937602 
H    -2.6995239   -4.4538590   -0.0589733 
H    -3.5434058   -3.4686758   -1.2669431 
H     0.7831944   -3.8713116   -1.3732997 
H    -0.1617330   -4.6840800   -0.1013253 
H    -0.2293472   -5.3176402   -3.1108239 
H     0.5451480   -6.3068076   -1.8611038 
H    -1.6695364   -6.7506663   -0.7884786 
H    -1.7380804   -7.2103367   -2.5009089 
C    -2.9913789   -1.9741525    1.7236711 
H    -3.2362865   -0.9044186    1.6310655 
H    -3.6983784   -2.5523770    1.1089891 
H    -3.1391142   -2.2658128    2.7776075 
C    -2.5695074    4.4440401   -1.0892237 
H    -1.7286236    4.4213775   -1.8004022 
H    -3.5127036    4.2751148   -1.6363585 
H    -2.6265253    5.4628482   -0.6645828 
C    -4.4798246    1.9343858    2.8830813 
H    -5.4410473    2.0755417    2.3621077 
H    -4.4330075    0.9068355    3.2799831 
H    -4.4660975    2.6216297    3.7496689 
O    -4.6423249    3.8058620    0.7023735 
C    -4.8891690    4.9692126    1.5068905 
H    -5.8637650    5.3648485    1.1850018 
H    -4.9323098    4.7181953    2.5829726 
H    -4.1081397    5.7364169    1.3473670 
C     2.2759007    5.5183784    2.6940887 
H     2.8732591    5.9203970    3.5284752 
H     2.5510948    6.0769627    1.7791894 
H     1.2091021    5.7160849    2.8893262 
C     5.3486194    1.5098684    3.1602520 
H     5.3602712    0.4121843    3.0611586 
H     6.1746834    1.9162115    2.5488843 
H     5.5717246    1.7777698    4.2073638 
O     4.7638737    4.2426627    3.4294220 
C     5.5700981    5.0054052    2.5237134 
H     6.3495289    5.4870610    3.1325748 
H     6.0464202    4.3528714    1.7665558 
H     4.9793067    5.7855845    2.0075323 
