112
Energy =
C     0.6317626    1.2311400   -2.9981315 
C     0.8997475    2.3518587   -2.1660640 
C     1.8901881    2.3015862   -1.1557408 
H     0.2535453    3.2355711   -2.2327541 
Pd    0.2723611    0.7328039   -0.7904819 
P     0.5664520    0.7283980    1.5219990 
P    -0.9436855   -1.2763737   -0.9166695 
H     1.4460432    0.5024379   -3.1254421 
H     2.6665434    1.5276211   -1.2562354 
C    -2.3098275    1.1044308   -6.1472141 
C    -1.2642128    0.1706210   -6.1033501 
C    -0.3078982    0.2361459   -5.0827091 
C    -0.3800367    1.2229009   -4.0703703 
C    -1.4243100    2.1740062   -4.1491117 
C    -2.3753795    2.1139879   -5.1721255 
H    -3.0596114    1.0577502   -6.9433894 
H    -1.1851967   -0.6047965   -6.8725098 
H     0.5220799   -0.4781379   -5.0750812 
H    -1.5043084    2.9638122   -3.3964655 
H    -3.1767974    2.8592565   -5.2095410 
C     3.0404746    5.4829680    1.4990767 
C     3.8941191    4.3954042    1.2655348 
C     3.5004190    3.3672347    0.4007103 
C     2.2488731    3.4087312   -0.2550609 
C     1.4071325    4.5215257   -0.0223557 
C     1.7964180    5.5424326    0.8480586 
H     3.3430032    6.2855452    2.1795829 
H     4.8693787    4.3436897    1.7607982 
H     4.1678506    2.5167188    0.2258369 
H     0.4324110    4.5844758   -0.5151230 
H     1.1248681    6.3886099    1.0249955 
Fe    0.0842874   -2.0879906    3.6608862 
C    -0.3746564   -0.5548205    2.4191668 
C    -0.8300118   -1.8232300    1.8647088 
C    -1.7373762   -2.4028121    2.8248228 
C    -1.8540099   -1.5195789    3.9448559 
C    -1.0160458   -0.3862758    3.7081830 
C     0.8418303   -3.9499957    3.9930733 
C     1.8302112   -3.1080196    3.3792748 
C     2.0496692   -1.9805393    4.2422349 
C     1.1929015   -2.1207109    5.3823067 
C     0.4449784   -3.3370855    5.2300967 
C    -0.0206762    2.2781789    2.3085140 
C    -0.9245535    3.0646429    1.5658781 
C    -1.4940861    4.2172594    2.1219734 
C    -1.1547348    4.6068648    3.4249607 
C    -0.2606968    3.8281204    4.1762741 
C     0.2950893    2.6634649    3.6298079 
C     2.3523635    0.4650974    1.8739269 
C     3.1469406    1.2763043    2.7050101 
C     4.5031778    0.9697624    2.9033455 
C     5.0845692   -0.1327321    2.2631237 
C     4.3067802   -0.9255250    1.4025062 
C     2.9545759   -0.6239826    1.2053505 
C    -0.4736681   -2.4217290    0.5220532 
H    -2.2360596   -3.3682955    2.7320819 
H    -2.4482602   -1.6990013    4.8423891 
H    -0.8969203    0.4670632    4.3748845 
H     0.4508026   -4.8862266    3.5901907 
H     2.3318725   -3.2925091    2.4278216 
H     2.7369840   -1.1551510    4.0542137 
H     1.1078629   -1.4163074    6.2117189 
H    -0.3085740   -3.7183086    5.9216537 
H    -1.1782832    2.7633942    0.5427401 
H     0.9577678    2.0486201    4.2461296 
H     2.7286329    2.1645297    3.1812619 
H     2.3578426   -1.2374860    0.5208011 
H     0.6278253   -2.4283069    0.4382447 
C    -0.9760888   -3.8679913    0.3818036 
H    -0.6542707   -4.4493947    1.2628880 
H    -2.0761323   -3.9199784    0.3198554 
H    -0.5583753   -4.3541703   -0.5117914 
H    -2.1973535    4.8145437    1.5323655 
H    -0.0028488    4.1215582    5.1991273 
H     5.1079616    1.6092402    3.5546801 
H     4.7564192   -1.7774013    0.8818796 
H    -1.5908722    5.5121181    3.8596804 
H     6.1419461   -0.3675896    2.4216072 
H    -0.3947198   -1.3289269   -3.2051013 
C    -0.6258518   -3.7636744   -4.4094051 
C    -1.2263684   -3.2884959   -3.0706869 
C    -0.3610639   -2.1564016   -2.4737980 
C     1.1192570   -2.5795703   -2.3248740 
C     1.6986624   -3.0773110   -3.6612797 
C     0.8386247   -4.2041451   -4.2556780 
H    -0.6871010   -2.9365941   -5.1435029 
H    -1.2379341   -4.5895071   -4.8136264 
H    -1.2917107   -4.1445925   -2.3760948 
H    -2.2573689   -2.9332241   -3.2416978 
H     1.7155139   -1.7297884   -1.9364211 
H     1.2026071   -3.3936551   -1.5792553 
H     1.7451877   -2.2328278   -4.3765676 
H     2.7388564   -3.4180717   -3.5117730 
H     0.8866931   -5.0881387   -3.5891400 
H     1.2476825   -4.5230505   -5.2307419 
H    -3.0604228   -2.2386306   -1.4724907 
C    -3.1875024    1.2643598   -1.5198060 
C    -3.2434484   -0.1614924   -2.0970668 
C    -2.8168855   -1.2398114   -1.0679850 
C    -3.5976916   -1.0569939    0.2515882 
C    -3.4819948    0.3606616    0.8271542 
C    -3.9559798    1.4019686   -0.1965880 
H    -3.5733799    1.9747065   -2.2702501 
H    -2.1210148    1.5328063   -1.3482109 
H    -2.6348303   -0.2207808   -3.0184355 
H    -4.2841660   -0.3915523   -2.3965368 
H    -4.6610594   -1.2618221    0.0157221 
H    -3.2968711   -1.8087838    0.9966169 
H    -4.0626964    0.4346602    1.7632782 
H    -2.4283476    0.5620555    1.0998366 
H    -3.8368577    2.4238148    0.2078276 
H    -5.0389621    1.2628363   -0.3842374 
