124
Energy =
C     0.9542970    0.9957690   -2.7700402 
C     2.0172753    0.1390360   -2.3857930 
C     1.7723686   -1.2506723   -2.1873012 
H     2.9845707    0.5680754   -2.0978741 
Pd    0.5365491   -0.0139046   -0.7712025 
P     0.1768947   -1.6271270    0.8539882 
P    -0.5875591    1.7255833    0.2852294 
H     0.0897184    0.5083306   -3.2468899 
H     0.9515552   -1.6895335   -2.7729454 
C     1.0971051    5.2176829   -3.5464675 
C    -0.0612470    4.4758011   -3.8208390 
C    -0.0924915    3.1036528   -3.5501130 
C     1.0309676    2.4452772   -2.9972183 
C     2.1845877    3.2103499   -2.7094196 
C     2.2162171    4.5797194   -2.9865651 
H     1.1291122    6.2900865   -3.7641336 
H    -0.9390222    4.9648705   -4.2556475 
H    -0.9956572    2.5264157   -3.7745962 
H     3.0668795    2.7346608   -2.2713121 
H     3.1195196    5.1553347   -2.7626290 
C     4.6317171   -4.1747378   -0.8547327 
C     3.4317628   -4.5696631   -1.4639859 
C     2.5064095   -3.6056316   -1.8828406 
C     2.7602788   -2.2266593   -1.6955294 
C     3.9582399   -1.8445790   -1.0468787 
C     4.8865822   -2.8093289   -0.6436173 
H     5.3569191   -4.9250954   -0.5273443 
H     3.2204722   -5.6323865   -1.6199455 
H     1.5802298   -3.9146903   -2.3807667 
H     4.1688982   -0.7888038   -0.8479329 
H     5.8118894   -2.4947998   -0.1501971 
Fe   -2.9559360   -1.1537724    2.0820438 
C    -0.9330724   -1.1909870    2.2165987 
C    -1.4538679    0.1381808    2.5378694 
C    -2.3443175   -0.0301409    3.6596791 
C    -2.3901512   -1.4108917    4.0264410 
C    -1.5339727   -2.1335519    3.1396717 
C    -3.8593234   -2.5384827    0.8799466 
C    -4.6898226   -2.2238388    2.0067919 
C    -4.9679826   -0.8154881    1.9747244 
C    -4.3130111   -0.2581268    0.8283349 
C    -3.6280217   -1.3216436    0.1519514 
C     1.7949359   -2.0594493    1.6207410 
C     2.3282178   -3.3484384    1.7873279 
C     3.6116384   -3.5062431    2.3315159 
C     4.3890021   -2.3949973    2.6886062 
C     3.8673712   -1.1105417    2.4891498 
C     2.5801759   -0.9463950    1.9682599 
C    -0.5384229   -3.1593889    0.1323050 
C    -0.6904488   -4.3895337    0.7980801 
C    -1.3191392   -5.4654077    0.1540184 
C    -1.7973473   -5.3438448   -1.1602173 
C    -1.6477305   -4.1180900   -1.8196310 
C    -1.0293737   -3.0403590   -1.1761445 
C    -0.9992753    1.5219136    2.1220363 
H    -2.9026429    0.7783825    4.1365074 
H    -3.0033306   -1.8474173    4.8166369 
H    -1.3790602   -3.2120246    3.1572152 
H    -3.4700251   -3.5274598    0.6331140 
H    -5.0266010   -2.9270472    2.7706361 
H    -5.5528808   -0.2619865    2.7116670 
H    -4.3235267    0.7897153    0.5293244 
H    -3.0458852   -1.2215526   -0.7626283 
H     1.7848743   -4.2389591    1.4673023 
H     2.1948478    0.0626527    1.7944388 
H    -0.3325510   -4.5320619    1.8206564 
H    -0.9327673   -2.0818376   -1.6960663 
H    -1.8645125    2.1934397    2.2651104 
C     0.1235566    2.0003577    3.0718590 
H    -0.2177304    1.8668652    4.1123033 
H     1.0499149    1.4150593    2.9535616 
H     0.3638160    3.0630787    2.9137235 
C     4.1746999   -4.8977750    2.5385908 
F     5.4964043   -4.9398807    2.2418482 
F     4.0380617   -5.2960339    3.8228241 
F     3.5485254   -5.8118711    1.7600019 
C     4.7216564    0.1189795    2.6881552 
F     3.9916207    1.1672725    3.1519594 
F     5.7449532   -0.0876655    3.5335607 
F     5.2524939    0.5209583    1.4933910 
C    -1.5508449   -6.7387614    0.9411578 
F    -1.7845370   -7.7957416    0.1397770 
F    -0.4867844   -7.0282440    1.7262985 
F    -2.6243937   -6.5941151    1.7596696 
C    -2.1140422   -3.8999017   -3.2402708 
F    -2.9713542   -2.8431119   -3.3075524 
F    -1.0594960   -3.5900666   -4.0439050 
F    -2.7329665   -4.9718730   -3.7586284 
H     5.3994731   -2.5285150    3.0835707 
H    -2.2790121   -6.1900371   -1.6563291 
C    -4.6453579    2.6264505   -1.7452638 
C    -4.2960499    3.3759652   -0.6013110 
C    -3.0616193    3.1150685    0.0191953 
C    -2.1896579    2.1337902   -0.4991275 
C    -2.5672655    1.4086988   -1.6413907 
C    -3.8002152    1.6391800   -2.2805593 
H    -5.6136242    2.8135460   -2.2250056 
H    -2.7896568    3.6831061    0.9163735 
H    -1.8949458    0.6319233   -2.0241448 
C    -5.2378773    4.4278940   -0.0592971 
H    -5.4017020    5.2285278   -0.8030129 
H    -6.2265749    3.9922503    0.1703669 
H    -4.8443789    4.8914470    0.8598656 
C    -4.1841038    0.8476385   -3.5107353 
H    -3.7424209    1.3015042   -4.4183156 
H    -3.8185891   -0.1917331   -3.4512380 
H    -5.2768493    0.8236224   -3.6517002 
C     2.2055311    5.4162799    0.3008212 
C     2.7075529    4.1460144    0.6422020 
C     1.8272502    3.0529869    0.5858528 
C     0.4707690    3.2259151    0.2372473 
C     0.0050283    4.4997959   -0.1270567 
C     0.8715243    5.6097636   -0.1021730 
H     2.8838025    6.2777867    0.3222240 
H     2.2084389    2.0509532    0.8162796 
H    -1.0284625    4.6361639   -0.4588748 
C     4.1464992    3.9534235    1.0660874 
H     4.2238936    3.9085511    2.1681946 
H     4.5586706    3.0056290    0.6814486 
H     4.7847811    4.7820484    0.7183578 
C     0.3653254    6.9793845   -0.4947513 
H    -0.1126563    7.4826482    0.3667289 
H     1.1856325    7.6281932   -0.8435195 
H    -0.3878100    6.9092471   -1.2978092 
