112
Energy =
C     2.8694188   -1.7338472   -0.0492950 
C     3.0882470   -0.4902931   -0.6893263 
C     2.9850915    0.7378424    0.0213441 
H     3.2280487   -0.4675684   -1.7777701 
Pd    1.0317950   -0.3804163    0.0493407 
P    -0.5216043    1.3550225    0.3374466 
P    -0.6502952   -2.0369084   -0.1364784 
H     3.0081998   -1.7730537    1.0420057 
H     3.2137815    0.7061805    1.0969158 
C     3.3412465   -5.5140939   -2.0437387 
C     2.9090419   -4.3923735   -2.7735424 
C     2.7310335   -3.1619809   -2.1339363 
C     2.9761167   -3.0271364   -0.7465239 
C     3.3850659   -4.1681401   -0.0220022 
C     3.5780604   -5.3964254   -0.6666536 
H     3.4883079   -6.4745130   -2.5484271 
H     2.7087524   -4.4794038   -3.8465146 
H     2.3775019   -2.3037513   -2.7140240 
H     3.5639466   -4.0848662    1.0556052 
H     3.9064616   -6.2662170   -0.0886983 
C     3.5347754    4.5983260   -1.8109905 
C     2.9627884    3.5482394   -2.5497589 
C     2.7872250    2.2909181   -1.9644388 
C     3.1711567    2.0530302   -0.6243908 
C     3.7582858    3.1129870    0.0999019 
C     3.9401508    4.3722393   -0.4876975 
H     3.6699402    5.5835192   -2.2686427 
H     2.6486973    3.7139879   -3.5856454 
H     2.3281598    1.4837942   -2.5457547 
H     4.0815631    2.9435546    1.1328704 
H     4.4019446    5.1791975    0.0906537 
Fe   -1.0744835   -0.1977987    3.3431486 
C    -1.6511022    0.7923652    1.6493112 
C    -2.2477412   -0.5392380    1.6999826 
C    -3.0223221   -0.6138583    2.9130994 
C    -2.9185981    0.6304472    3.6086890 
C    -2.0772145    1.4964355    2.8408021 
C    -0.5428733   -0.5530886    5.2771024 
C    -0.4080374   -1.7502534    4.4965320 
C     0.5323906   -1.4883914    3.4426873 
C     0.9707729   -0.1309682    3.5724955 
C     0.3085798    0.4501256    4.7037180 
C    -2.3319783   -1.6229064    0.6485071 
H    -3.5903738   -1.4882644    3.2380203 
H    -3.3732793    0.8720877    4.5709567 
H    -1.7983574    2.5110009    3.1231874 
H    -1.1941760   -0.4232773    6.1432900 
H    -0.9278340   -2.6915105    4.6838678 
H     0.8733831   -2.1970445    2.6871783 
H     1.6821962    0.3689711    2.9161653 
H     0.4216195    1.4751060    5.0613123 
H    -2.5921145   -2.5482132    1.1869681 
C    -3.4769004   -1.3779141   -0.3611293 
H    -4.3704912   -1.0392497    0.1905021 
H    -3.2287150   -0.6165025   -1.1141833 
H    -3.7335455   -2.3045201   -0.8970849 
H    -1.7175386    0.5273375   -1.5221780 
C    -1.6911567    2.2789221   -3.6159043 
C    -0.8615774    2.3150374   -2.3191151 
C    -1.6012824    1.5756540   -1.1849593 
C    -3.0208128    2.1374271   -0.9510719 
C    -3.8289555    2.0896982   -2.2621014 
C    -3.1065108    2.8377048   -3.3952846 
H    -1.7628171    1.2302953   -3.9657435 
H    -1.1684802    2.8456256   -4.4076326 
H    -0.6750439    3.3666066   -2.0305368 
H     0.1296529    1.8574976   -2.4819909 
H    -3.5315978    1.5660889   -0.1565694 
H    -2.9671837    3.1815563   -0.6009150 
H    -3.9812757    1.0335380   -2.5616022 
H    -4.8334215    2.5171777   -2.0934328 
H    -3.0387283    3.9130924   -3.1370262 
H    -3.6917200    2.7743296   -4.3298847 
H     0.8469390    3.2586999   -0.0204361 
C     1.5058983    4.3716538    2.5222704 
C     0.9451039    2.9973267    2.1172573 
C     0.1337816    3.0510805    0.8027497 
C    -0.9217045    4.1838474    0.8113729 
C    -0.3032825    5.5332689    1.2216182 
C     0.4059631    5.4402535    2.5790978 
H     2.2679110    4.6854078    1.7857045 
H     2.0200573    4.2802153    3.4963566 
H     0.3081614    2.6097083    2.9299586 
H     1.7698077    2.2753253    1.9999945 
H    -1.3709588    4.2833853   -0.1893046 
H    -1.7465823    3.9357623    1.5036164 
H     0.4269245    5.8463499    0.4497197 
H    -1.0955662    6.3028089    1.2417019 
H    -0.3310972    5.1801001    3.3655129 
H     0.8350343    6.4186098    2.8592092 
C    -1.3978212   -2.6069906   -4.7018081 
C    -1.9813937   -3.5024318   -3.7903732 
C    -1.7639270   -3.3520165   -2.4149901 
C    -0.9585140   -2.2968878   -1.9341134 
C    -0.3716340   -1.4087434   -2.8577743 
C    -0.5904050   -1.5602325   -4.2344300 
H    -1.5694118   -2.7303706   -5.7761406 
H    -2.6071890   -4.3242149   -4.1534229 
H    -2.2100211   -4.0665327   -1.7150706 
H     0.2689900   -0.5996396   -2.4822959 
H    -0.1262069   -0.8633746   -4.9399439 
C    -0.0048832   -6.3567457    1.5174526 
C    -0.5700805   -5.3624708    2.3305938 
C    -0.7616549   -4.0693826    1.8292154 
C    -0.3813258   -3.7451118    0.5073025 
C     0.1997562   -4.7464972   -0.2973631 
C     0.3740585   -6.0438272    0.2054911 
H     0.1348085   -7.3710683    1.9050657 
H    -0.8735468   -5.5951205    3.3567756 
H    -1.2157926   -3.3079894    2.4698839 
H     0.5094841   -4.5242500   -1.3219746 
H     0.8170599   -6.8088846   -0.4394916 
