106
Energy =
C    -2.4782395   -1.4884243   -1.7693271 
C    -1.9853144   -2.3086325   -0.7244286 
C    -2.0357552   -1.8775622    0.6289749 
H    -1.4262322   -3.2179223   -0.9758514 
Pd   -0.8330024   -0.4275396   -0.6343256 
P     0.3038628    0.7687878    1.0346230 
P     0.1415632    0.8629516   -2.3001683 
H    -3.2036860   -0.7090416   -1.4898036 
H    -2.8203577   -1.1503952    0.8833036 
C    -2.6203327   -2.4281876   -5.9623523 
C    -3.1866259   -1.2429097   -5.4686985 
C    -3.1069781   -0.9418085   -4.1057031 
C    -2.4684001   -1.8227542   -3.2015336 
C    -1.8888787   -3.0056796   -3.7163356 
C    -1.9660004   -3.3036398   -5.0817339 
H    -2.6878623   -2.6689593   -7.0281584 
H    -3.6939323   -0.5519102   -6.1493016 
H    -3.5522000   -0.0156431   -3.7253543 
H    -1.3991756   -3.7188435   -3.0453475 
H    -1.5251461   -4.2324647   -5.4585123 
C    -0.5552544   -4.0306113    4.0474984 
C    -1.3358022   -2.8758621    4.2051420 
C    -1.7974252   -2.1809240    3.0832437 
C    -1.4956207   -2.6260836    1.7752334 
C    -0.7038535   -3.7906306    1.6328451 
C    -0.2421258   -4.4841997    2.7563620 
H    -0.1929007   -4.5752735    4.9251773 
H    -1.5839801   -2.5135921    5.2076422 
H    -2.4044996   -1.2787365    3.2157864 
H    -0.4576088   -4.1742291    0.6378647 
H     0.3600534   -5.3890210    2.6236238 
Fe    2.8574292   -0.9779538   -1.5849129 
C     1.9363355    0.7663066   -2.0578599 
C     2.5576824    0.8868210   -0.7479068 
C     3.9598780    0.6166236   -0.9297525 
C     4.2059609    0.3599800   -2.3175150 
C     2.9631524    0.4527769   -3.0214593 
C     2.9059969   -2.6978412   -2.6816493 
C     3.9193836   -2.7155279   -1.6646285 
C     3.2733458   -2.5843400   -0.3897445 
C     1.8581771   -2.4924064   -0.6201613 
C     1.6322487   -2.5580521   -2.0357028 
C     1.9294133    1.5517285    0.4593366 
H     4.7133519    0.6140002   -0.1413862 
H     5.1710827    0.1057586   -2.7595376 
H     2.8107820    0.3029242   -4.0903257 
H     3.0814278   -2.7562425   -3.7577053 
H     4.9950514   -2.7901707   -1.8340721 
H     3.7752372   -2.5610062    0.5793024 
H     1.0829297   -2.4021141    0.1416526 
H     0.6591880   -2.5007070   -2.5274879 
H     1.5738393    2.5305606    0.0816017 
C     2.9168306    1.8051959    1.6095571 
H     3.7324543    2.4619315    1.2613602 
H     2.4177376    2.2912576    2.4635376 
H     3.3550658    0.8637656    1.9777653 
C    -0.2738073    2.6164377   -2.1932528 
C    -1.3170062    3.2808484   -1.5809407 
C    -1.1099621    4.6747969   -1.8273989 
C     0.0459367    4.7632251   -2.5662655 
H    -2.1229008    2.8219906   -1.0078288 
H    -1.7353321    5.5028899   -1.4941244 
H     0.6082212    5.5975034   -2.9846160 
O     0.5656338    3.5275610   -2.7967681 
C    -0.0685514    0.5076085   -4.0674557 
C     0.3468326   -0.5186745   -4.8936384 
C    -0.0840615   -0.1766229   -6.2136243 
C    -0.7461814    1.0210411   -6.1018734 
H     0.9031233   -1.4041095   -4.5924486 
H     0.0681517   -0.7532693   -7.1256273 
H    -1.2520910    1.6724660   -6.8129069 
O    -0.7509139    1.4444970   -4.8075397 
C    -2.5555445    4.2626310    2.1014409 
C    -3.0493076    2.9444946    2.0003220 
C    -2.1420364    1.9200637    1.6896337 
C    -0.7691613    2.1908539    1.4977683 
C    -0.3049641    3.5085466    1.6308248 
C    -1.1955917    4.5629429    1.9231642 
H    -3.2550049    5.0766893    2.3271300 
H    -2.5079077    0.8928843    1.5863272 
H     0.7542981    3.7473727    1.4945536 
C     1.4751513   -1.2218784    5.0403785 
C     1.9872386   -1.7307236    3.8336446 
C     1.5921195   -1.1173091    2.6323918 
C     0.7125645   -0.0209666    2.6367967 
C     0.2084848    0.4671017    3.8583808 
C     0.5874660   -0.1291627    5.0739365 
H     1.7707913   -1.6958637    5.9841880 
H     1.9942468   -1.4772907    1.6836498 
H    -0.4778221    1.3199014    3.8685782 
C    -4.5163129    2.6515075    2.2226915 
H    -4.7950950    2.8270827    3.2778993 
H    -5.1530944    3.3101607    1.6061174 
H    -4.7630821    1.6052088    1.9775571 
C    -0.6827066    5.9829521    2.0086377 
H    -0.3545012    6.3350361    1.0128399 
H    -1.4579181    6.6743174    2.3761386 
H     0.1896830    6.0527232    2.6820049 
C     2.9454686   -2.8999610    3.8104357 
H     2.6664484   -3.6203533    3.0219988 
H     3.9773997   -2.5602421    3.6015529 
H     2.9584803   -3.4329921    4.7749384 
C     0.0246743    0.3649896    6.3879809 
H    -0.7667738   -0.3171544    6.7530526 
H     0.8030326    0.4060588    7.1691485 
H    -0.4200860    1.3686624    6.2875152 
