112
Energy =
C     2.7394740    2.3041862   -0.5086836 
C     1.7863327    2.6354615   -1.5051330 
C     0.5582963    3.2633349   -1.1706312 
H     1.9550836    2.2956972   -2.5356123 
Pd    0.7861640    1.2293905   -0.1351068 
P    -1.4372198    0.5278623    0.2425148 
P     1.7064183   -0.6125610    0.9267071 
H     2.7089374    2.8834635    0.4272765 
H     0.5390063    3.8515685   -0.2408524 
C     6.5654877    0.5242438   -1.3459295 
C     5.4397741    0.1319079   -2.0903957 
C     4.1888549    0.6970789   -1.8238993 
C     4.0338381    1.6574244   -0.7981809 
C     5.1687346    2.0276642   -0.0455106 
C     6.4249370    1.4757752   -0.3256559 
H     7.5456375    0.0853638   -1.5592226 
H     5.5381306   -0.6191971   -2.8811276 
H     3.3183451    0.3761028   -2.4044738 
H     5.0619188    2.7547848    0.7667654 
H     7.2944373    1.7813270    0.2651220 
C    -2.4933727    4.3718358   -4.0052700 
C    -1.6640868    3.2683748   -4.2687780 
C    -0.6644736    2.9036234   -3.3614098 
C    -0.4695399    3.6308907   -2.1633468 
C    -1.2959734    4.7542724   -1.9259714 
C    -2.2985115    5.1187172   -2.8339581 
H    -3.2792648    4.6518557   -4.7139828 
H    -1.8009372    2.6871591   -5.1867941 
H    -0.0376466    2.0325236   -3.5762308 
H    -1.1367833    5.3561703   -1.0244940 
H    -2.9251181    5.9928961   -2.6289140 
Fe   -0.3974648   -3.0330313    2.4649211 
C     0.6760178   -1.3143848    2.2569336 
C    -0.7085834   -1.0165618    2.6096448 
C    -0.9603946   -1.6811718    3.8691185 
C     0.2214412   -2.3690590    4.2882884 
C     1.2280157   -2.1569991    3.2988758 
C    -1.8864159   -4.4235597    2.5313288 
C    -1.7895954   -3.8701694    1.2115440 
C    -0.4641973   -4.1142001    0.7191860 
C     0.2585994   -4.8260247    1.7343417 
C    -0.6198264   -5.0176871    2.8534930 
C     3.2522806   -0.2421295    1.8498667 
C     4.5115444   -0.7653900    1.5068977 
C     5.6370762   -0.4461415    2.2828503 
C     5.5198774    0.4109770    3.3840915 
C     4.2687946    0.9621532    3.7104817 
C     3.1401830    0.6368332    2.9500987 
C     2.1152805   -1.9813545   -0.2263207 
C     2.7483591   -3.1607608    0.2190527 
C     3.0123373   -4.2007148   -0.6809859 
C     2.6447570   -4.0792454   -2.0312798 
C     2.0175651   -2.9088583   -2.4816534 
C     1.7586355   -1.8638918   -1.5824511 
C    -1.7195786   -0.0459578    2.0155308 
H    -1.9045511   -1.6787817    4.4143010 
H     0.3226898   -2.9773876    5.1886277 
H     2.2521062   -2.5319766    3.3326264 
H    -2.7621322   -4.3867365    3.1819156 
H    -2.5889537   -3.3624418    0.6756838 
H    -0.0702744   -3.8146581   -0.2535129 
H     1.2932829   -5.1625802    1.6703580 
H    -0.3632610   -5.5100700    3.7932461 
H     4.6282998   -1.4026487    0.6259733 
H     2.1618678    1.0524738    3.2200777 
H     3.0300496   -3.2711634    1.2698423 
H     1.2707147   -0.9461205   -1.9274992 
H     6.6122849   -0.8601560    2.0077242 
H     4.1719078    1.6392430    4.5655732 
H     3.5047222   -5.1125911   -0.3273642 
H     1.7322702   -2.8055124   -3.5335923 
H     6.4010813    0.6580469    3.9850772 
H     2.8496169   -4.8967192   -2.7301235 
H    -1.5462851    0.9151514    2.5420643 
C    -3.1614015   -0.4996075    2.3431681 
H    -3.2849751   -1.5705088    2.1191312 
H    -3.3696678   -0.3513581    3.4155755 
H    -3.9159167    0.0690491    1.7839678 
H    -1.1608872   -1.6294039   -0.6766400 
H    -2.1327314    2.3892775   -0.9732756 
C    -1.6144052   -1.4956263   -3.4185116 
C    -1.4980717   -0.3518279   -2.3973742 
C    -1.8678795   -0.8268509   -0.9723980 
C    -3.2994926   -1.4104188   -0.9767099 
C    -3.4045996   -2.5691777   -1.9887647 
C    -3.0208177   -2.1149243   -3.4056551 
H    -0.8685111   -2.2754526   -3.1696008 
H    -1.3624916   -1.1208684   -4.4273473 
H    -2.1712906    0.4761869   -2.6910336 
H    -0.4757414    0.0696707   -2.3965252 
H    -3.5951447   -1.7516575    0.0269183 
H    -4.0176846   -0.6243514   -1.2627163 
H    -2.7345687   -3.3939803   -1.6755332 
H    -4.4319674   -2.9747654   -1.9762446 
H    -3.7540552   -1.3636004   -3.7593329 
H    -3.0733738   -2.9645191   -4.1093815 
C    -3.4288002    3.2497380    2.0483306 
C    -2.2566703    3.0895926    1.0686735 
C    -2.5510814    2.0121736   -0.0237319 
C    -4.0742337    1.8436707   -0.2724706 
C    -4.7586818    3.2158681   -0.1424832 
C    -4.6993023    3.7410533    1.3126499 
H    -3.1548467    3.9513274    2.8552693 
H    -3.6289143    2.2807062    2.5409170 
H    -1.3141114    2.8653579    1.6043927 
H    -2.0838263    4.0551901    0.5626290 
H    -4.2330783    1.4342267   -1.2838523 
H    -4.5438649    1.1358501    0.4319479 
H    -4.2496901    3.9217171   -0.8258640 
H    -5.8053373    3.1512192   -0.4868252 
H    -5.5945346    3.4143166    1.8713310 
H    -4.7243768    4.8454675    1.3036955 
