98
Energy =
C    -1.0318054   -1.9556561   -2.2048987 
C    -0.7228835   -0.7274787   -2.8353125 
C     0.6204596   -0.2822459   -2.9571871 
H    -1.5403277   -0.0657131   -3.1470355 
Pd    0.0295860   -0.4935135   -0.7748970 
P     1.6653101    0.9935128    0.0731173 
P    -1.0796923   -1.1224845    1.2090016 
H    -0.2291269   -2.7056746   -2.1449893 
H     1.3989617   -1.0582657   -2.9541670 
C    -4.9826593   -3.6148042   -1.7905223 
C    -4.8205131   -2.2222634   -1.8896102 
C    -3.5441700   -1.6692097   -2.0325440 
C    -2.3968641   -2.4948433   -2.0730020 
C    -2.5785870   -3.8949735   -1.9908192 
C    -3.8569918   -4.4495576   -1.8511462 
H    -5.9825442   -4.0451317   -1.6751380 
H    -5.6954072   -1.5648709   -1.8529139 
H    -3.4364912   -0.5818259   -2.0974496 
H    -1.7048653   -4.5531165   -2.0446098 
H    -3.9741488   -5.5363987   -1.7914481 
C     1.7856314    3.3858485   -4.8854791 
C     0.4975604    3.2648772   -4.3357766 
C     0.1103691    2.0830791   -3.6973739 
C     0.9984007    0.9849873   -3.6083372 
C     2.2879510    1.1187579   -4.1726250 
C     2.6795416    2.3083002   -4.8004727 
H     2.0879198    4.3153734   -5.3782015 
H    -0.2039748    4.1031245   -4.3963348 
H    -0.8843340    2.0198634   -3.2436002 
H     2.9852096    0.2747375   -4.1284651 
H     3.6819060    2.3901745   -5.2331261 
Fe    1.0264370    0.3854320    3.3706401 
C    -0.0904920   -1.1457337    2.7356085 
C    -0.4829398   -0.7641016    4.0787888 
H    -1.4666392   -0.4111122    4.3922892 
C     0.6608714   -0.8963474    4.9326366 
H     0.6917770   -0.6519349    5.9959053 
C     1.7606022   -1.3662803    4.1431961 
H     2.7769482   -1.5422581    4.4997020 
C     1.3057101   -1.5270221    2.7943167 
C     1.5479370    1.5330875    1.8140987 
C     2.5845285    1.5594389    2.8290138 
H     3.6208008    1.2416236    2.7072087 
C     2.0109070    2.0550847    4.0454287 
H     2.5336112    2.1606092    4.9976880 
C     0.6304480    2.3506103    3.8033710 
H    -0.0855586    2.7229599    4.5379726 
C     0.3410050    2.0395873    2.4350854 
H     1.9093265   -1.8497674    1.9462078 
H    -0.6248564    2.1551594    1.9436497 
C     2.0139059    2.6353077   -0.7711365 
C     3.4526684    2.9371084   -0.3064908 
C     4.2720598    1.6480724   -0.4929026 
C     3.4565449    0.3917968   -0.0509098 
H     2.0348398    2.4033929   -1.8512511 
H     3.8893518    3.7640655   -0.8932493 
H     3.4449464    3.2586428    0.7517076 
H     4.5063151    1.5374306   -1.5677301 
H     5.2356903    1.6912498    0.0432324 
H     3.7292619    0.0815806    0.9728824 
C    -2.0619288   -2.7225409    1.3659590 
C    -3.2335605   -2.3185833    2.2845974 
C    -3.7513085   -0.9543947    1.8050562 
C    -2.5473534    0.0041038    1.6004748 
H    -2.4604567   -2.9240397    0.3563880 
H    -4.0267284   -3.0872783    2.2568651 
H    -2.8811126   -2.2568164    3.3320053 
H    -4.2681350   -1.0874960    0.8365051 
H    -4.4818685   -0.5218894    2.5101155 
H    -2.2851886    0.4880594    2.5591144 
C    -2.7852459    1.1036130    0.5468183 
H    -1.8420286    1.6521575    0.3632094 
H    -3.0404473    0.6238592   -0.4155771 
C    -3.8883706    2.0917288    0.9484380 
H    -4.0119336    2.8768001    0.1827183 
H    -4.8617066    1.5856510    1.0703697 
H    -3.6457175    2.5880336    1.9058598 
C    -1.2506694   -3.9338036    1.8492572 
H    -0.8464511   -3.7208494    2.8568807 
H    -1.9556173   -4.7781767    1.9727167 
C    -0.1146077   -4.3509797    0.9081158 
H    -0.5034884   -4.6392142   -0.0830319 
H     0.6039951   -3.5262412    0.7545987 
H     0.4441931   -5.2100374    1.3159026 
C     0.9613268    3.7248657   -0.5122831 
H     0.8693875    3.8989761    0.5755865 
H    -0.0222859    3.3534207   -0.8594712 
C     1.2843102    5.0534350   -1.2117544 
H     1.4298782    4.9068408   -2.2959027 
H     0.4629609    5.7768082   -1.0704564 
H     2.2027703    5.5102684   -0.8044832 
C     3.6998934   -0.8000660   -0.9966639 
H     4.7966738   -0.9229711   -1.0828707 
H     3.3524716   -0.5254693   -2.0089111 
C     3.0772220   -2.1301741   -0.5691363 
H     3.2844286   -2.9232089   -1.3079182 
H     3.4730131   -2.4676743    0.4053196 
H     1.9742571   -2.0390076   -0.4760078 
