112
Energy =
C     2.8094369   -1.6164744   -1.5771936 
C     2.7635857   -0.3092933   -2.1301946 
C     2.9871180    0.8429877   -1.3331773 
H     2.4202705   -0.1938226   -3.1664009 
Pd    1.2127926   -0.3861424   -0.5703802 
P    -0.1602821    1.2452850    0.4192381 
P    -0.0860006   -2.2116859    0.0762922 
H     3.4360232   -1.7694818   -0.6851890 
H     3.5637924    0.6987500   -0.4070508 
C     2.0581234   -5.1709111   -3.8869629 
C     1.2531734   -4.0338441   -4.0746251 
C     1.4926888   -2.8735143   -3.3316204 
C     2.5298491   -2.8308845   -2.3719558 
C     3.3203858   -3.9845704   -2.1820816 
C     3.0958733   -5.1389604   -2.9439094 
H     1.8737591   -6.0774895   -4.4725975 
H     0.4314269   -4.0542024   -4.7978963 
H     0.8480442   -1.9992769   -3.4709590 
H     4.1173842   -3.9733756   -1.4309079 
H     3.7264553   -6.0208473   -2.7904179 
C     3.0414512    4.9065796   -2.7692851 
C     2.4781077    3.8945681   -3.5640256 
C     2.4382214    2.5731469   -3.1067478 
C     2.9792153    2.2252073   -1.8464737 
C     3.5674668    3.2521993   -1.0709072 
C     3.5901206    4.5775735   -1.5206231 
H     3.0651265    5.9403826   -3.1283910 
H     2.0665395    4.1383934   -4.5488611 
H     1.9804942    1.8065035   -3.7399182 
H     4.0242891    3.0009485   -0.1081455 
H     4.0507800    5.3536034   -0.9005634 
Fe   -3.2734355    0.5611522    2.1643179 
C    -1.8503369    0.5977572    0.6983528 
C    -2.1599627   -0.7698679    1.1134706 
C    -3.5622042   -0.9929192    0.8788720 
C    -4.1354134    0.2060566    0.3530489 
C    -3.0998845    1.1873577    0.2504728 
C    -2.7341198    1.7185546    3.7731275 
C    -3.9723362    2.1725473    3.2106459 
C    -4.9046620    1.0814038    3.2610937 
C    -4.2389106   -0.0472695    3.8507772 
C    -2.8949030    0.3460561    4.1663048 
C    -1.1821957   -1.8177043    1.5729953 
H    -4.1070117   -1.9115700    1.0972950 
H    -5.1878446    0.3618009    0.1102220 
H    -3.2410147    2.2063984   -0.1057108 
H    -1.8306923    2.3175254    3.8891639 
H    -4.1688408    3.1682114    2.8090086 
H    -5.9332378    1.0988854    2.8962408 
H    -4.6773317   -1.0329693    4.0174581 
H    -2.1360355   -0.2835185    4.6352320 
H    -0.4760004   -1.3718498    2.2906848 
C    -1.8462300   -3.0428156    2.2134975 
H    -2.4670474   -2.7103416    3.0640747 
H    -2.5016358   -3.5710330    1.5019935 
H    -1.0934424   -3.7558415    2.5847849 
H     0.7089309    3.0161378   -0.8942022 
C    -1.1712815    5.1185809   -1.0440284 
C    -1.0314957    3.9590626   -0.0403563 
C    -0.3440001    2.7365535   -0.6935921 
C    -0.9603361    2.3201221   -2.0524644 
C    -1.1430744    3.5212023   -2.9972732 
C    -1.9029258    4.6710839   -2.3186631 
H    -0.1621728    5.4869790   -1.3140201 
H    -1.7005438    5.9596771   -0.5615052 
H    -2.0300281    3.6878642    0.3464796 
H    -0.4443296    4.2946007    0.8325985 
H    -0.3025046    1.5616620   -2.5190540 
H    -1.9378950    1.8305953   -1.8962196 
H    -0.1494641    3.8891646   -3.3100506 
H    -1.6664993    3.1903479   -3.9125592 
H    -2.9298867    4.3423879   -2.0601996 
H    -2.0107086    5.5199893   -3.0169869 
H    -0.2926260    2.6401474    2.3739089 
C     2.3419239    3.2168676    3.1890312 
C     1.8214914    2.6554804    1.8532736 
C     0.4800174    1.9214911    2.0407756 
C     0.6134414    0.8144863    3.1033521 
C     1.1387299    1.3719348    4.4380516 
C     2.4715681    2.1143026    4.2518670 
H     1.6434579    3.9972601    3.5496350 
H     3.3142888    3.7157294    3.0261578 
H     2.5565136    1.9344279    1.4469503 
H     1.7302542    3.4677720    1.1121837 
H    -0.3671158    0.3314473    3.2474635 
H     1.3151492    0.0428869    2.7240265 
H     0.3877491    2.0677831    4.8612704 
H     1.2481186    0.5487641    5.1670024 
H     3.2495511    1.3916686    3.9343644 
H     2.8106923    2.5424360    5.2116938 
C    -3.2815361   -3.3038588   -3.1082281 
C    -2.9299371   -4.2631646   -2.1462055 
C    -1.9456007   -3.9780723   -1.1894518 
C    -1.2939463   -2.7264666   -1.1981599 
C    -1.6606164   -1.7642699   -2.1626500 
C    -2.6496823   -2.0510804   -3.1115216 
H    -4.0503775   -3.5327853   -3.8535194 
H    -3.4255944   -5.2394603   -2.1377196 
H    -1.6858640   -4.7340969   -0.4423756 
H    -1.1671157   -0.7852238   -2.1588008 
H    -2.9258746   -1.2959780   -3.8547644 
C     2.5185309   -5.7782892    1.5161608 
C     2.4035990   -4.6046754    2.2806452 
C     1.6028162   -3.5500376    1.8286082 
C     0.8996190   -3.6579615    0.6058327 
C     1.0465487   -4.8231515   -0.1712394 
C     1.8456208   -5.8798019    0.2920735 
H     3.1400701   -6.6059540    1.8729155 
H     2.9378352   -4.5128010    3.2319564 
H     1.5245036   -2.6376266    2.4318433 
H     0.5604614   -4.9036836   -1.1476470 
H     1.9505675   -6.7798164   -0.3221564 
