132
Energy =
C     2.2912691   -1.6674773   -2.1794975 
C     2.0700529   -0.3135315   -2.4863740 
C     2.3557533    0.7282755   -1.5442553 
H     1.5686370   -0.0572539   -3.4276501 
Pd    0.7981375   -0.5696688   -0.6900867 
P     0.4385330    0.7095567    1.2159591 
P    -1.1611676   -1.8272263   -0.2546654 
H     2.9252017   -1.8838328   -1.3077699 
H     3.1927026    0.5742115   -0.8492943 
C     1.9956044   -5.0260933   -4.8435528 
C     1.4244006   -3.7970376   -5.2168573 
C     1.4868090   -2.6984875   -4.3549171 
C     2.1225801   -2.8037095   -3.0942591 
C     2.6813309   -4.0517115   -2.7282763 
C     2.6223081   -5.1497391   -3.5941367 
H     1.9497100   -5.8822544   -5.5240015 
H     0.9324285   -3.6955710   -6.1896325 
H     1.0392585   -1.7491906   -4.6664654 
H     3.1834508   -4.1491110   -1.7588319 
H     3.0695433   -6.1032601   -3.2954986 
C     1.3344736    4.8647193   -2.2303318 
C     0.6595433    3.8512924   -2.9325382 
C     0.9845167    2.5076138   -2.7196879 
C     2.0020783    2.1404551   -1.8042895 
C     2.6793994    3.1722023   -1.1162456 
C     2.3468336    4.5165042   -1.3245556 
H     1.0754830    5.9156689   -2.3946894 
H    -0.1273644    4.1104177   -3.6488753 
H     0.4286435    1.7357747   -3.2618953 
H     3.4700250    2.9122590   -0.4050429 
H     2.8867120    5.2956500   -0.7762381 
Fe    1.4995583   -2.1250162    2.8552028 
C     0.3084912   -0.4869406    2.5681728 
C    -0.4634352   -1.7209698    2.5545639 
C    -0.2562244   -2.3500876    3.8369857 
C     0.6399368   -1.5484919    4.6144265 
C     0.9999393   -0.4045173    3.8358815 
C     2.1805534   -3.2882877    1.3119855 
C     3.0974585   -2.2134233    1.5599125 
C     3.5409436   -2.3009793    2.9204590 
C     2.9029160   -3.4421095    3.5141814 
C     2.0627590   -4.0525994    2.5202962 
C    -1.0738080    1.7305827    1.2744437 
C    -1.2576837    2.7114696    0.2805790 
C    -2.4134606    3.5090110    0.2603080 
C    -3.4065822    3.2697538    1.2407402 
C    -3.2509758    2.2806638    2.2404640 
C    -2.0622701    1.5317163    2.2555225 
C     1.7799718    1.8457062    1.7420157 
C     1.5492785    3.2071318    2.0005518 
C     2.6031380    4.0698460    2.3549525 
C     3.9068918    3.5337485    2.4402544 
C     4.1617481    2.1562931    2.2282923 
C     3.0860805    1.3326113    1.8721967 
C    -1.4686411   -2.2758037    1.5642371 
H    -0.6935134   -3.3027484    4.1446132 
H     1.0133018   -1.7864555    5.6120312 
H     1.6768179    0.3972364    4.1330799 
H     1.6637751   -3.4781565    0.3726400 
H     3.4019301   -1.4617014    0.8307754 
H     4.2279187   -1.6163070    3.4209964 
H     3.0180144   -3.7745631    4.5474120 
H     1.4327724   -4.9318873    2.6678706 
H    -0.4954527    2.8584341   -0.4933859 
H    -1.9139153    0.7781976    3.0363890 
H     0.5374816    3.6172553    1.9303622 
H     3.2572360    0.2662872    1.7147107 
H    -1.2999912   -3.3671736    1.5663880 
H    -2.5487363   -3.7432768   -0.7115077 
H    -2.6487985    0.0269053    0.0578887 
C    -4.9944458   -0.2337117   -1.3771919 
C    -3.9499515   -1.3136079   -1.0352516 
C    -2.5621414   -0.6738780   -0.7949831 
C    -2.1292797    0.1690585   -2.0220309 
C    -3.1978657    1.2071347   -2.4043184 
C    -4.5765568    0.5666539   -2.6199673 
H    -5.1048936    0.4545971   -0.5156656 
H    -5.9783693   -0.7113426   -1.5330971 
H    -3.8941968   -2.0271022   -1.8770081 
H    -4.2833227   -1.8877905   -0.1577272 
H    -1.1728585    0.6773245   -1.7907824 
H    -1.9322243   -0.4956245   -2.8843686 
H    -3.2734661    1.9474827   -1.5884268 
H    -2.8718494    1.7567570   -3.3064940 
H    -4.5422395   -0.1105819   -3.4965533 
H    -5.3272840    1.3441285   -2.8487343 
C    -0.9842261   -5.9345846   -1.3097043 
C    -0.5534978   -4.5888798   -0.6977139 
C    -1.5409069   -3.4684550   -1.0865454 
C    -1.5950360   -3.3504511   -2.6242314 
C    -2.0160575   -4.6860482   -3.2648413 
C    -1.0963966   -5.8402683   -2.8391094 
H    -1.9607258   -6.2309838   -0.8783969 
H    -0.2604204   -6.7192581   -1.0239701 
H     0.4486319   -4.3194594   -1.0819916 
H    -0.4669777   -4.6892886    0.3994898 
H    -2.2926858   -2.5576451   -2.9379790 
H    -0.5940638   -3.0597763   -2.9899315 
H    -3.0596691   -4.9116741   -2.9686793 
H    -2.0151292   -4.5813752   -4.3650324 
H    -0.0895245   -5.6694817   -3.2616527 
H    -1.4610104   -6.7957269   -3.2569046 
C    -2.9116846   -2.0441555    2.0712878 
H    -3.2229964   -0.9918107    1.9743224 
H    -3.6324903   -2.6772011    1.5299170 
H    -2.9661246   -2.3139994    3.1397642 
C    -2.6180307    4.5676461   -0.7976315 
H    -3.6818925    4.6352771   -1.0784434 
H    -2.3087425    5.5634532   -0.4282492 
H    -2.0156801    4.3486245   -1.6932829 
C    -4.3518800    2.0408567    3.2463711 
H    -4.3906936    2.8484557    4.0005813 
H    -5.3348196    2.0225209    2.7462184 
H    -4.1997960    1.0901465    3.7825131 
O    -4.5985766    3.9567705    1.1770925 
C    -4.6397740    5.2200492    1.8572270 
H    -5.6599776    5.6093019    1.7239386 
H    -4.4286112    5.1010700    2.9367213 
H    -3.9145006    5.9350595    1.4253054 
C     2.3456541    5.5300666    2.6438233 
H     3.0873396    5.9224141    3.3581988 
H     2.4113352    6.1381422    1.7215443 
H     1.3349854    5.6760735    3.0591906 
C     5.5617021    1.6153427    2.3946329 
H     5.5809594    0.5197570    2.2741629 
H     6.2527863    2.0526671    1.6516343 
H     5.9642901    1.8737998    3.3891558 
O     4.9653391    4.3333885    2.8094309 
C     5.5468644    5.1183399    1.7594104 
H     6.3973545    5.6542389    2.2061524 
H     5.9080273    4.4743413    0.9343981 
H     4.8259623    5.8524230    1.3519694 
