112
Energy =
C     2.0264335   -0.3869726   -2.5857564 
C     2.4799914    0.9228135   -2.2672427 
C     3.1563746    1.1903999   -1.0506599 
H     2.1879243    1.7614293   -2.9105652 
Pd    1.0885522    0.3608804   -0.6507169 
P     0.7870928    1.5284733    1.3417521 
P    -0.6664098   -1.1714372   -0.3247591 
H     2.5680714   -1.2250231   -2.1230053 
H     3.6386687    0.3354288   -0.5527655 
C    -0.1541352   -1.5040050   -6.1314363 
C     0.5195548   -2.4689043   -5.3682088 
C     1.2395394   -2.0859898   -4.2293719 
C     1.2902410   -0.7346934   -3.8154811 
C     0.6193605    0.2274436   -4.6071745 
C    -0.0896192   -0.1526246   -5.7508742 
H    -0.7165592   -1.7989596   -7.0230563 
H     0.4934664   -3.5225183   -5.6655151 
H     1.7836107   -2.8429672   -3.6537267 
H     0.6317654    1.2828315   -4.3150022 
H    -0.6039484    0.6084963   -6.3468527 
C     4.8291091    4.9562290    0.1728690 
C     5.1433564    3.7736480    0.8583583 
C     4.5659012    2.5603207    0.4643815 
C     3.6672014    2.5041804   -0.6262743 
C     3.3340933    3.7104664   -1.2853985 
C     3.9153953    4.9194828   -0.8939664 
H     5.2875948    5.9046902    0.4710791 
H     5.8479182    3.7932448    1.6963140 
H     4.8204252    1.6370726    0.9969242 
H     2.6180137    3.7068970   -2.1129248 
H     3.6513958    5.8417933   -1.4209242 
Fe   -2.6351340   -1.4169073    2.7161393 
C    -1.0261401   -1.3357216    1.4604795 
C    -1.0231727   -0.2243472    2.4098545 
C    -0.9908482   -0.7811401    3.7364642 
C    -0.9983967   -2.2077754    3.6340361 
C    -1.0312767   -2.5555817    2.2463286 
C    -4.1238445   -2.1607318    3.8852493 
C    -4.1797318   -0.7253823    3.8486339 
C    -4.3519370   -0.3233973    2.4813504 
C    -4.4042411   -1.5119814    1.6760276 
C    -4.2597008   -2.6463899    2.5407142 
C    -0.9382362    1.2380193    2.0699631 
H    -0.9971849   -0.2130788    4.6671906 
H    -1.0174346   -2.9109682    4.4684215 
H    -1.0603761   -3.5720227    1.8563390 
H    -3.9816404   -2.7732611    4.7773976 
H    -4.0945099   -0.0596769    4.7095651 
H    -4.4415413    0.7034053    2.1213787 
H    -4.5392566   -1.5487048    0.5947110 
H    -4.2473961   -3.6929045    2.2310860 
H    -1.5882998    1.4512727    1.2061384 
C    -1.3225626    2.1754285    3.2202388 
H    -2.3603694    1.9580009    3.5280306 
H    -0.6752206    2.0336858    4.1002909 
H    -1.2611977    3.2305868    2.9083008 
H     0.1584551   -2.6155193   -1.9758037 
C    -0.6064858   -5.2359040   -1.6169511 
C    -1.1867354   -3.9591874   -0.9781460 
C    -0.1119032   -2.8501843   -0.9277556 
C     1.1814265   -3.3147843   -0.2184360 
C     1.7276039   -4.6074511   -0.8510850 
C     0.6583922   -5.7116833   -0.8844161 
H    -0.3602825   -5.0263067   -2.6768997 
H    -1.3747813   -6.0295945   -1.6218891 
H    -1.5545974   -4.1903715    0.0376821 
H    -2.0623819   -3.6190126   -1.5578346 
H     1.9393590   -2.5094851   -0.2665662 
H     0.9842788   -3.4872177    0.8549950 
H     2.0637144   -4.3956404   -1.8853321 
H     2.6194430   -4.9460342   -0.2939003 
H     0.3947227   -5.9958470    0.1538796 
H     1.0617746   -6.6198156   -1.3664105 
H    -2.9467582   -1.6629204   -0.9162755 
C    -3.3699228   -0.6168746   -3.5107884 
C    -2.0576110   -0.8901029   -2.7562719 
C    -2.2673087   -0.8470752   -1.2303117 
C    -2.8870992    0.4994087   -0.8116306 
C    -4.2005728    0.7742045   -1.5642882 
C    -3.9954803    0.7211567   -3.0867810 
H    -4.0851144   -1.4391188   -3.3107903 
H    -3.1712684   -0.6274735   -4.5974850 
H    -1.3142089   -0.1187497   -3.0253055 
H    -1.6323239   -1.8549463   -3.0816434 
H    -3.0578760    0.5001442    0.2778722 
H    -2.1595313    1.3060322   -1.0365741 
H    -4.9534035    0.0170620   -1.2687218 
H    -4.6061718    1.7553173   -1.2574948 
H    -3.3240040    1.5485930   -3.3917231 
H    -4.9548351    0.8827514   -3.6096161 
C     3.6361759    0.0421651    4.6969691 
C     2.9225392    1.2341494    4.8957286 
C     2.0742120    1.7263284    3.8943019 
C     1.9409451    1.0308871    2.6719394 
C     2.6547995   -0.1721822    2.4871314 
C     3.4971700   -0.6638080    3.4929155 
H     4.2976493   -0.3373274    5.4826510 
H     3.0245456    1.7846418    5.8367215 
H     1.5213834    2.6535550    4.0698225 
H     2.5339291   -0.7274970    1.5494059 
H     4.0441490   -1.5992333    3.3362914 
C     0.7616478    6.1060812    0.5621225 
C    -0.1175034    5.2378767   -0.1052341 
C    -0.0720254    3.8628855    0.1519987 
C     0.8473933    3.3398659    1.0907693 
C     1.7427514    4.2127217    1.7360323 
C     1.6932341    5.5892049    1.4722444 
H     0.7270386    7.1819568    0.3622469 
H    -0.8377193    5.6324816   -0.8294882 
H    -0.7504693    3.1875854   -0.3837228 
H     2.4990397    3.8248779    2.4221984 
H     2.3998719    6.2568609    1.9753037 
