110
Energy =
C     1.2351311    2.7621959    0.9477665 
C     0.5011295    2.9931303   -0.2346009 
C    -0.9155338    2.8654363   -0.2638563 
H     1.0410238    3.2142033   -1.1636174 
Pd    0.0578157    0.8729052    0.2336485 
P    -1.8850066   -0.4781705   -0.1229280 
P     1.6718183   -0.7912708    0.6381695 
H     0.6719236    2.7677590    1.8927615 
H    -1.4423432    3.0432302    0.6823193 
C     5.3629240    3.8466416    1.4429280 
C     4.4843460    3.8338738    2.5365032 
C     3.1581554    3.4203605    2.3658739 
C     2.6736154    3.0379402    1.0930918 
C     3.5756662    3.0437756    0.0020675 
C     4.9055169    3.4393627    0.1780300 
H     6.4014902    4.1662253    1.5748215 
H     4.8344532    4.1424809    3.5265653 
H     2.4744567    3.4197877    3.2222335 
H     3.2358089    2.7383198   -0.9921768 
H     5.5890564    3.4390209   -0.6772769 
C    -3.2462419    3.6535957   -3.7973533 
C    -1.9291816    3.1784859   -3.9199916 
C    -1.1692742    2.9036179   -2.7792136 
C    -1.7036716    3.1143201   -1.4845427 
C    -3.0269959    3.5996112   -1.3780458 
C    -3.7911823    3.8633458   -2.5223650 
H    -3.8419415    3.8601734   -4.6921012 
H    -1.4983891    3.0113934   -4.9125904 
H    -0.1586526    2.4965871   -2.8901513 
H    -3.4522217    3.7891292   -0.3859834 
H    -4.8133883    4.2412999   -2.4175895 
Fe   -0.5034214   -3.3296464    1.1110450 
C     1.0678481   -2.1965863    1.6194601 
C     1.4571706   -3.5912481    1.5598946 
H     2.2144505   -4.0267080    0.9062955 
C     0.6507707   -4.3194467    2.4939394 
H     0.6836150   -5.3981558    2.6572060 
C    -0.2336691   -3.3963500    3.1422100 
H    -0.9914782   -3.6502356    3.8854621 
C     0.0167087   -2.0895740    2.6110736 
C    -1.7482475   -2.3020900   -0.0783349 
C    -2.4863977   -3.2294555    0.7631350 
H    -3.2506872   -2.9759008    1.4980008 
C    -2.0243573   -4.5571929    0.4866769 
H    -2.3685839   -5.4655582    0.9841364 
C    -1.0075681   -4.4774371   -0.5175088 
H    -0.4399925   -5.3147924   -0.9268614 
C    -0.8378819   -3.1005939   -0.8720255 
H    -0.4999117   -1.1682243    2.8856633 
H    -0.1423340   -2.7215117   -1.6181375 
C    -2.9171997   -0.0771336   -1.6623376 
C    -4.3400030    0.2291768   -1.1162991 
C    -4.5327479   -0.5119203    0.2149660 
C    -3.3043351   -0.2089758    1.1069949 
H    -2.4663710    0.8551475   -2.0361673 
H    -4.4393925    1.3168490   -0.9571611 
H    -5.1129891   -0.0514870   -1.8518812 
H    -5.4741734   -0.2307557    0.7160163 
H    -4.5870469   -1.5985141    0.0270834 
H    -3.1925594   -0.9676468    1.9021215 
C     3.3901186   -0.4086687    1.3021684 
C     4.2565551   -1.5258857    0.6848544 
C     3.8785887   -1.6208450   -0.8012577 
C     2.3330440   -1.6088189   -0.9432565 
H     3.6333428    0.5320227    0.7682175 
H     5.3306266   -1.3019926    0.8069821 
H     4.0677809   -2.4849353    1.2005689 
H     4.3051368   -0.7487257   -1.3274899 
H     4.3044174   -2.5216751   -1.2752411 
H     1.9547333   -2.6429061   -0.8623597 
C     1.7863790   -1.0263240   -2.2759347 
H     0.6828236   -0.9901022   -2.1787326 
C     3.5826581   -0.1184244    2.8132514 
H     2.8714637    0.6908002    3.0698952 
C    -2.8394270   -1.1057813   -2.8316746 
H    -1.7877569   -1.4479232   -2.8958878 
C    -3.3009687    1.1836055    1.7926993 
H    -3.1556071    1.9508212    1.0101607 
C     5.0099406    0.4220600    3.0430605 
H     5.1036022    0.8445159    4.0583060 
H     5.7569902   -0.3865057    2.9506168 
H     5.2678361    1.2134257    2.3206658 
C     3.3233939   -1.3037160    3.7610170 
H     3.5770494   -1.0103086    4.7946362 
H     2.2748587   -1.6351857    3.7553903 
H     3.9559206   -2.1716113    3.5028653 
C     2.2388641    0.4136765   -2.5589883 
H     1.7336151    0.8043707   -3.4589382 
H     1.9767195    1.0716023   -1.7105722 
H     3.3268986    0.4844001   -2.7318642 
C     2.1296935   -1.9604229   -3.4505126 
H     1.6771300   -1.5930043   -4.3880076 
H     3.2215255   -2.0202292   -3.6066134 
H     1.7590209   -2.9863202   -3.2722390 
C    -3.1640132   -0.3897212   -4.1575962 
H    -3.1042485   -1.0938306   -5.0058563 
H    -4.1866858    0.0294052   -4.1408758 
H    -2.4650921    0.4426072   -4.3457596 
C    -3.7331784   -2.3478301   -2.6666379 
H    -3.5614095   -3.0453779   -3.5044477 
H    -3.5342067   -2.8946122   -1.7322289 
H    -4.8031301   -2.0741851   -2.6853313 
C    -2.1466613    1.2908759    2.8026786 
H    -2.0784503    2.3077712    3.2273187 
H    -2.2927336    0.5837524    3.6398097 
H    -1.1705105    1.0558985    2.3270007 
C    -4.6388117    1.4890800    2.4934477 
H    -4.5655162    2.4381687    3.0522560 
H    -5.4717453    1.5907976    1.7782769 
H    -4.9000967    0.6934114    3.2150978 
