134
Energy =
C    -1.5924286    0.7988709   -2.7759775 
C    -0.8998123   -0.3707830   -3.1941998 
C    -1.2250079   -1.6391708   -2.6590092 
H    -0.0394324   -0.2792530   -3.8678563 
Pd   -0.5210657   -0.1817560   -1.0183438 
P     0.5469091   -1.8021101    0.2815761 
P    -1.0386807    1.5529402    0.4914766 
H    -2.6054356    0.6622632   -2.3722693 
H    -2.2009518   -1.7289339   -2.1581683 
C    -0.8257278    4.7870872   -4.2046299 
C     0.1281583    3.7779308   -4.4181094 
C    -0.0997321    2.4801785   -3.9523014 
C    -1.3001011    2.1523510   -3.2781750 
C    -2.2610905    3.1725680   -3.0954799 
C    -2.0224202    4.4771083   -3.5426799 
H    -0.6391521    5.8051610   -4.5614555 
H     1.0602720    4.0089635   -4.9437208 
H     0.6717391    1.7173500   -4.1041659 
H    -3.2055386    2.9285676   -2.6006002 
H    -2.7793453    5.2526380   -3.3838504 
C     0.4322621   -5.4467951   -3.7636717 
C    -0.7648527   -5.3662064   -3.0376887 
C    -1.2868994   -4.1161017   -2.6843449 
C    -0.6262455   -2.9207799   -3.0516914 
C     0.5677480   -3.0203490   -3.8045736 
C     1.0924466   -4.2675596   -4.1499821 
H     0.8453014   -6.4227674   -4.0392505 
H    -1.2943412   -6.2789616   -2.7457597 
H    -2.2203425   -4.0556435   -2.1149085 
H     1.0960282   -2.1150056   -4.1155441 
H     2.0233736   -4.3232406   -4.7228206 
Fe    3.5701288    1.0617949    2.6572047 
C     2.1426416    0.0441557    1.6084292 
C     1.5987629    1.2811335    2.1356884 
C     2.4017125    2.3671794    1.6355756 
H     2.2453062    3.4242482    1.8544887 
C     3.4143479    1.8129688    0.7830717 
H     4.1931755    2.3796166    0.2686006 
C     3.2662474    0.3838646    0.7714918 
H     3.9120779   -0.3237449    0.2491269 
C     3.9364956    0.2751802    4.5177275 
H     3.2796358   -0.3723193    5.1022574 
C     3.9687147    1.7113007    4.5615714 
H     3.3387634    2.3566467    5.1766200 
C     4.9780526    2.1606003    3.6473510 
H     5.2317182    3.2005831    3.4339649 
C     5.5722930    1.0042177    3.0395190 
H     6.3566663    1.0103943    2.2802717 
C     4.9291937   -0.1607043    3.5763592 
H     5.1524487   -1.1939194    3.3060195 
C     0.3586517    1.3310186    2.9566660 
C    -0.9192436    1.3849903    2.3333423 
C    -2.0842122    1.3504464    3.1276466 
H    -3.0679127    1.4030165    2.6532648 
C    -2.0001027    1.2550451    4.5239160 
H    -2.9170019    1.2292286    5.1219216 
C    -0.7454045    1.2012031    5.1422495 
H    -0.6668859    1.1273526    6.2318394 
C     0.4164964    1.2397234    4.3592917 
H     1.4015576    1.1870878    4.8253349 
C    -0.7213720   -2.9607133    0.9225860 
C    -1.6339085   -2.3832485    1.8363401 
H    -1.4897198   -1.3508111    2.1788557 
C    -2.7426125   -3.1019256    2.3076094 
C    -2.9269365   -4.4226390    1.8470222 
H    -3.7883502   -4.9977407    2.2084406 
C    -2.0374145   -5.0223667    0.9399736 
C    -0.9306732   -4.2773835    0.4809630 
H    -0.2508741   -4.7327107   -0.2415757 
C     1.8298371   -2.6372286   -0.7278223 
C     2.2452721   -3.9716470   -0.5744527 
H     1.7667584   -4.6211120    0.1638187 
C     3.2984761   -4.4900952   -1.3528222 
C     3.9575745   -3.6320328   -2.2515596 
H     4.7888070   -4.0259509   -2.8491484 
C     3.5796340   -2.2853343   -2.4100276 
C     2.5014832   -1.8057382   -1.6490305 
H     2.1722872   -0.7645939   -1.7658925 
C     1.4985930   -1.2925496    1.8431217 
H     0.6982818   -1.1453812    2.5896755 
C     2.4284103   -2.4097934    2.3358255 
H     2.8049560   -2.1421203    3.3360628 
H     1.8902035   -3.3706174    2.4131242 
H     3.2920081   -2.5447332    1.6647517 
C     3.6855233   -5.9471383   -1.2378458 
C     4.2734345   -1.3930791   -3.4151112 
C    -3.7250737   -2.4692083    3.2687421 
C    -2.2767069   -6.4258314    0.4268645 
C    -5.6170406    1.7581403   -0.2271984 
C    -4.8991635    2.9648643   -0.2371828 
C    -3.5076304    2.9271293    0.0044996 
C    -2.8582324    1.7070873    0.2360358 
C    -3.6045517    0.5057230    0.2365531 
C    -4.9893238    0.5162530    0.0149920 
H    -6.6968598    1.7802226   -0.4180625 
H    -2.9336122    3.8587356   -0.0178701 
H    -3.0955971   -0.4514270    0.4108744 
C     1.0245838    5.6249672   -0.1730901 
C     0.0500328    5.5264199    0.8400247 
C    -0.5942619    4.2901075    1.0259168 
C    -0.2880260    3.1952962    0.1944474 
C     0.6881908    3.3200299   -0.8073063 
C     1.3659842    4.5364066   -0.9972607 
H     1.5497005    6.5787007   -0.3096997 
H    -1.3196148    4.1755971    1.8398442 
H     0.9535005    2.4440919   -1.4079745 
H    -3.3833301   -1.4729560    3.5936219 
H    -4.7173305   -2.3523820    2.7951453 
H    -3.8651704   -3.0975877    4.1660014 
H    -1.3335105   -6.9138928    0.1298376 
H    -2.7712163   -7.0557417    1.1849109 
H    -2.9345127   -6.4069915   -0.4634752 
H     3.0198292   -6.5679082   -1.8675123 
H     4.7207673   -6.1216520   -1.5739759 
H     3.5895441   -6.3112260   -0.2007396 
H     3.8505142   -1.5438292   -4.4273244 
H     4.1523097   -0.3267236   -3.1597415 
H     5.3520346   -1.6152254   -3.4779656 
C    -5.5800466    4.2882257   -0.5087219 
H    -5.0966413    4.8146893   -1.3518604 
H    -6.6462222    4.1553382   -0.7529208 
H    -5.5111214    4.9544784    0.3704455 
C    -5.7905981   -0.7667778    0.0422709 
H    -6.4588129   -0.8413598   -0.8334509 
H    -5.1329449   -1.6519176    0.0550514 
H    -6.4310840   -0.8085894    0.9428926 
C    -0.2955960    6.7220670    1.7002673 
H    -0.8218341    6.4196585    2.6207291 
H     0.6084832    7.2864425    1.9865499 
H    -0.9550197    7.4199323    1.1507571 
C     2.4663039    4.6668503   -2.0262060 
H     3.4172560    4.9649942   -1.5483186 
H     2.6320954    3.7169744   -2.5590025 
H     2.2199185    5.4396184   -2.7759332 
