94
Energy =
C    -1.2264972    0.4363553    1.8805998 
C    -1.1632564    1.8084527    1.3924976 
C    -2.1189732    2.3502489    0.5696765 
H    -0.2900389    2.4089522    1.6731033 
Pd   -0.2074623   -0.3245145    0.1784629 
P    -1.8763743   -1.2465043   -1.1042953 
P     2.0553599    0.0805554    0.3762150 
H    -2.2156276   -0.0339613    1.7884002 
H    -2.9685324    1.7110132    0.2983727 
C     0.9830608   -1.0558840    5.2636188 
C    -0.0997543   -1.7780446    4.7355485 
C    -0.8068953   -1.2779248    3.6382335 
C    -0.4488272   -0.0441518    3.0417098 
C     0.6484580    0.6690701    3.5846660 
C     1.3537129    0.1672003    4.6816206 
H     1.5356210   -1.4424155    6.1261912 
H    -0.3982001   -2.7296891    5.1880017 
H    -1.6511239   -1.8421593    3.2258949 
H     0.9579190    1.6221336    3.1442859 
H     2.2000577    0.7310851    5.0853330 
C    -2.0944041    6.1491446   -1.4231239 
C    -1.1652721    5.9022102   -0.3964063 
C    -1.1643701    4.6781386    0.2767637 
C    -2.0955191    3.6618597   -0.0635134 
C    -3.0349011    3.9349308   -1.0912381 
C    -3.0307370    5.1607437   -1.7649778 
H    -2.0934635    7.1115500   -1.9451427 
H    -0.4448769    6.6772101   -0.1134422 
H    -0.4471146    4.5136640    1.0877505 
H    -3.7644035    3.1618959   -1.3605487 
H    -3.7622151    5.3495122   -2.5577996 
Fe    1.1025128   -1.1496904   -2.7099765 
C    -0.9610893   -0.9279837   -2.6447032 
C    -0.5669167   -1.8723117   -3.6550426 
H    -0.8719110   -2.9191122   -3.6975753 
C     0.2905000   -1.1888857   -4.5791794 
H     0.7616168   -1.6336137   -5.4576268 
C     0.4452540    0.1698211   -4.1394753 
H     1.0529361    0.9361717   -4.6236835 
C    -0.3074940    0.3367731   -2.9372370 
C     2.3972427   -0.9667103   -1.0865204 
C     3.0411625   -0.5980358   -2.3180072 
H     3.4888142    0.3728672   -2.5339104 
C     2.9933048   -1.7322432   -3.1937558 
H     3.3943027   -1.7712229   -4.2083646 
C     2.3044616   -2.7972862   -2.5195471 
H     2.0862473   -3.7830253   -2.9343744 
C     1.9151778   -2.3280135   -1.2276069 
H    -0.4077880    1.2551918   -2.3554716 
H     1.3564521   -2.8871728   -0.4747459 
C    -3.4934247   -0.5058095   -1.3849155 
C    -4.0858033    0.1065360   -2.4697656 
C    -5.3091206    0.6767914   -1.9923785 
C    -5.3911339    0.3879055   -0.6467504 
H    -3.6842980    0.1405550   -3.4827932 
H    -6.0484579    1.2289460   -2.5728485 
O    -4.2830821   -0.3269279   -0.2660640 
C    -6.3924677    0.6861011    0.4143507 
H    -6.7900766   -0.2452134    0.8558013 
H    -5.9399135    1.2773249    1.2308086 
H    -7.2296750    1.2587338   -0.0120980 
C    -2.1666349   -3.0220363   -1.0503389 
C    -3.1928347   -3.8464984   -1.4634219 
C    -2.8138341   -5.1764264   -1.0993102 
C    -1.5825709   -5.0885415   -0.4845632 
H    -4.1060894   -3.5267963   -1.9661573 
H    -3.3818073   -6.0919287   -1.2661318 
O    -1.1835857   -3.7792182   -0.4442212 
C    -0.6553229   -6.0880785    0.1158839 
H     0.3244209   -6.0787282   -0.3956705 
H    -0.4769477   -5.8700837    1.1843434 
H    -1.0849930   -7.0973889    0.0297707 
C     2.6398275    1.7194659   -0.0602023 
C     1.9220779    2.8230815   -0.4757338 
C     2.8793281    3.8324991   -0.8039194 
C     4.1261691    3.2902855   -0.5724788 
H     0.8359692    2.8932587   -0.5391305 
H     2.6742408    4.8414106   -1.1618129 
C     3.1351351   -0.4839125    1.6993983 
C     4.1878704    0.0467346    2.4167570 
C     4.5138969   -0.9194862    3.4187632 
C     3.6477111   -1.9804284    3.2541409 
H     4.6667065    1.0070186    2.2309319 
H     5.3010857   -0.8480529    4.1696723 
O     3.9910371    2.0003617   -0.1287530 
O     2.8004252   -1.7187355    2.2113091 
C     5.5157379    3.8137005   -0.6931940 
H     6.0197785    3.8293345    0.2901630 
H     6.1201843    3.1807837   -1.3670807 
H     5.4965375    4.8386632   -1.0929857 
C     3.4852041   -3.2961916    3.9317605 
H     4.1444539   -3.3494928    4.8113946 
H     2.4402087   -3.4384840    4.2576588 
H     3.7439321   -4.1272268    3.2501574 
