116
Energy =
C    -3.4854278    0.1816638   -0.2676879 
C    -2.9046374    0.7175468   -1.4663293 
C    -2.2701784   -0.1322421   -2.3855178 
H    -2.9226175    1.8005868   -1.6417071 
Pd   -1.2644944   -0.1088957   -0.2115455 
P     0.9887622    0.5435977   -0.5986261 
P    -0.8982308   -1.3544370    1.8068746 
H    -3.9211275   -0.8184619   -0.3520662 
H    -2.3779827   -1.2135869   -2.2070176 
C    -5.3676911    2.7094720    2.6667577 
C    -4.2269207    3.1603758    1.9820028 
C    -3.6157865    2.3475548    1.0218710 
C    -4.1252644    1.0600598    0.7294718 
C    -5.2791596    0.6241553    1.4209347 
C    -5.8941415    1.4408500    2.3777518 
H    -5.8458405    3.3459315    3.4182393 
H    -3.8109497    4.1495671    2.2006558 
H    -2.7169237    2.7030857    0.5049667 
H    -5.6960097   -0.3647255    1.1995610 
H    -6.7889982    1.0866468    2.8998861 
C    -0.8469967    0.7167746   -6.3443289 
C    -0.8447185   -0.5939471   -5.8432078 
C    -1.3002405   -0.8455294   -4.5449637 
C    -1.7766502    0.2043290   -3.7219841 
C    -1.8088365    1.5148413   -4.2580396 
C    -1.3371308    1.7673631   -5.5486671 
H    -0.4855837    0.9187952   -7.3577138 
H    -0.4851061   -1.4192082   -6.4658059 
H    -1.2880381   -1.8682510   -4.1517351 
H    -2.2127892    2.3411687   -3.6668391 
H    -1.3635890    2.7874135   -5.9452781 
Fe    3.8360770   -0.6076138    1.3609852 
C     2.0609017    0.3080834    0.8674259 
C     1.8607763   -0.6982348    1.8943027 
C     2.6952480   -0.3479914    3.0164588 
C     3.4077788    0.8550785    2.6989067 
C     3.0413548    1.2501661    1.3717291 
C     4.9653564   -2.2543122    1.8044404 
C     4.4613274   -2.3457374    0.4638529 
C     4.9512116   -1.2083722   -0.2647999 
C     5.7390470   -0.4093238    0.6247777 
C     5.7495723   -1.0565237    1.9050433 
C     0.9434878   -1.8903268    1.7872853 
H     2.8090398   -0.9207124    3.9378400 
H     4.1392155    1.3530914    3.3379032 
H     3.4290302    2.1203684    0.8395055 
H     4.7840088   -2.9637252    2.6141235 
H     3.8403395   -3.1489657    0.0630079 
H     4.7759033   -0.9959541   -1.3190366 
H     6.2338481    0.5311116    0.3757386 
H     6.2478050   -0.6914927    2.8050205 
H     1.0128030   -2.2503252    0.7454125 
C     1.4137135   -3.0362209    2.7040836 
H     2.4942227   -3.1703977    2.5343565 
H     1.2644311   -2.8242475    3.7720571 
H     0.9177581   -3.9878062    2.4691438 
C    -1.8450632   -3.0352071    1.7203186 
C    -1.2390405   -0.4227424    3.4454571 
C    -3.3168663   -2.8060972    1.3092076 
H    -3.8637628   -3.7601071    1.4200042 
H    -3.8292116   -2.0490722    1.9208124 
H    -3.3844005   -2.5091853    0.2521272 
C    -2.7543983   -0.3990350    3.7287861 
H    -2.9410955    0.2848672    4.5765896 
H    -3.3261972   -0.0178687    2.8700409 
H    -3.1470405   -1.3890749    4.0117840 
C    -1.1890248   -3.8566354    0.5818679 
H    -1.8292900   -4.7288833    0.3571752 
H    -1.1033577   -3.2527197   -0.3414577 
H    -0.1900065   -4.2413176    0.8389703 
C    -1.8390705   -3.8252828    3.0493346 
H    -2.2882083   -4.8189462    2.8660465 
H    -0.8345473   -3.9874093    3.4622764 
H    -2.4519197   -3.3269459    3.8174195 
C    -0.4947044   -1.0020536    4.6655219 
H    -0.7810517   -0.4130451    5.5564260 
H    -0.7560556   -2.0524805    4.8661914 
H     0.5966797   -0.9164556    4.5556912 
C    -0.7689719    1.0304393    3.2034271 
H    -1.3442737    1.4959682    2.3867135 
H    -0.9426722    1.6204133    4.1222546 
H     0.3038688    1.0867076    2.9597898 
H     2.0601286    2.7006860   -0.9858156 
C     0.5634224    4.6456567    0.3917178 
C     0.5345047    3.1127715    0.5228881 
C     1.0069292    2.4221776   -0.7779130 
C     0.1137853    2.9004332   -1.9408233 
C     0.1434156    4.4311952   -2.0912649 
C    -0.2862272    5.1301195   -0.7930918 
H     1.6115377    4.9774695    0.2542230 
H     0.2110555    5.1008723    1.3349334 
H    -0.5016757    2.7799769    0.7269615 
H     1.1376999    2.7972020    1.3884051 
H     0.3910072    2.4235434   -2.8908256 
H    -0.9200682    2.5795174   -1.7161662 
H     1.1687172    4.7500297   -2.3634528 
H    -0.5110210    4.7301465   -2.9305990 
H    -1.3525829    4.9006680   -0.5935268 
H    -0.2140604    6.2270785   -0.8994262 
H     3.0564449   -0.0306742   -1.6139238 
C     2.8065917   -0.3052019   -4.3929635 
C     1.9123027    0.4419150   -3.3834752 
C     2.0278078   -0.1894461   -1.9841581 
C     1.7454968   -1.7078838   -2.0156209 
C     2.6162972   -2.4439669   -3.0486111 
C     2.4910851   -1.8084850   -4.4413379 
H     3.8695163   -0.1635191   -4.1127392 
H     2.6803669    0.1476301   -5.3927904 
H     0.8661724    0.4085046   -3.7323595 
H     2.2140287    1.5027953   -3.3473958 
H     1.9156317   -2.1284203   -1.0073383 
H     0.6729310   -1.8603761   -2.2494274 
H     3.6747283   -2.4125538   -2.7262661 
H     2.3324028   -3.5116087   -3.0789828 
H     1.4593418   -1.9501760   -4.8144925 
H     3.1610095   -2.3180177   -5.1565942 
