142
Energy =
C    -0.2953288    3.1555143    1.0236150 
C    -0.6386443    2.5361415    2.2471998 
C     0.3352715    1.8457518    3.0292429 
H    -1.6958018    2.4540955    2.5321601 
Pd    0.1570249    0.8729787    1.0391745 
P     1.0441031   -1.2081047    1.6236723 
P    -0.1076134    0.4388614   -1.2737572 
H     0.7699783    3.3607310    0.8456984 
H     1.3749996    2.2026737    2.9695443 
C    -2.9780872    5.2528227   -1.6046642 
C    -1.6755331    4.9331258   -2.0178462 
C    -0.8025555    4.2750590   -1.1462007 
C    -1.2248578    3.8911130    0.1482687 
C    -2.5330019    4.2386508    0.5588677 
C    -3.3955369    4.9190443   -0.3064457 
H    -3.6594760    5.7764688   -2.2833898 
H    -1.3349089    5.2019954   -3.0230625 
H     0.2118530    4.0328096   -1.4749081 
H    -2.8766796    3.9929745    1.5688646 
H    -4.3990758    5.1924238    0.0347712 
C    -0.6357985   -0.2645288    6.6551250 
C    -1.4878934   -0.3582259    5.5415440 
C    -1.1814971    0.3301361    4.3625335 
C    -0.0113637    1.1184973    4.2698157 
C     0.8371549    1.2033531    5.3935085 
C     0.5214810    0.5235010    6.5777641 
H    -0.8647454   -0.8146573    7.5728245 
H    -2.3917075   -0.9750992    5.5939242 
H    -1.8360592    0.2390768    3.4877501 
H     1.7526250    1.8012539    5.3349687 
H     1.1931550    0.5923400    7.4388062 
Fe   -3.0555099   -3.3808074    0.4459515 
C    -1.5428728   -2.1444754    1.0634048 
C    -1.6402530   -2.1479230   -0.3875508 
C    -2.9819674   -1.7427491   -0.7295639 
H    -3.3686181   -1.6520083   -1.7451969 
C    -3.6984780   -1.4615579    0.4779150 
H    -4.7424617   -1.1503984    0.5439899 
C    -2.8179464   -1.7100656    1.5803548 
H    -3.0738547   -1.6332345    2.6392731 
C    -2.6322148   -5.3966016    0.4262323 
H    -1.6556201   -5.8811979    0.3818562 
C    -3.4482067   -5.0358925   -0.6989243 
H    -3.1922006   -5.1660966   -1.7520988 
C    -4.6621514   -4.4602272   -0.1985769 
H    -5.4789088   -4.0613857   -0.8030251 
C    -4.5961342   -4.4612552    1.2352234 
H    -5.3571953   -4.0684065    1.9121117 
C    -3.3412088   -5.0383077    1.6217647 
H    -2.9982283   -5.1854162    2.6476340 
C    -0.5335439   -2.3711359   -1.3610487 
C     0.2347383   -1.2805081   -1.8655553 
C     1.2804291   -1.5270157   -2.7772232 
H     1.8932723   -0.6953260   -3.1378300 
C     1.5646087   -2.8308710   -3.2069498 
H     2.3896504   -3.0059575   -3.9041617 
C     0.8063143   -3.9054927   -2.7257432 
H     1.0317192   -4.9270200   -3.0463082 
C    -0.2291760   -3.6688447   -1.8123963 
H    -0.8294261   -4.4961186   -1.4266711 
C     1.0491449    1.5391013   -2.1909134 
C     0.9334296    1.7949864   -3.5703471 
H     0.1700473    1.2862000   -4.1651813 
C     1.7848342    2.7040344   -4.2211421 
C     2.7603464    3.3795150   -3.4492300 
C     2.9154723    3.1345562   -2.0655685 
C     2.0526256    2.2089851   -1.4628532 
H     2.1450011    2.0276239   -0.3843241 
C    -1.7855076    0.7744472   -1.9331088 
C    -2.7673698    1.2990471   -1.0762425 
H    -2.5168610    1.4970430   -0.0296267 
C    -4.0823690    1.5022307   -1.5184164 
C    -4.3894290    1.1906231   -2.8620036 
C    -3.4334014    0.6256198   -3.7396586 
C    -2.1350361    0.4116488   -3.2482866 
H    -1.4069583   -0.0927446   -3.8935533 
C     2.3508213   -1.8078675    0.4513127 
C     3.1782312   -0.8196081   -0.1125230 
H     2.9922317    0.2366367    0.0956378 
C     4.2345810   -1.1678338   -0.9655538 
C     4.4756426   -2.5079968   -1.2850473 
H     5.2880990   -2.7776663   -1.9651562 
C     3.6417661   -3.4930688   -0.7389482 
C     2.5992394   -3.1552584    0.1328439 
H     1.9824705   -3.9561253    0.5315794 
C     2.0173969   -1.2095959    3.1999209 
C     1.6857042   -1.9783911    4.3292259 
H     0.8198349   -2.6423777    4.3378546 
C     2.4556250   -1.8848598    5.4973004 
C     3.5526353   -1.0164165    5.5683360 
H     4.1380709   -0.9304891    6.4873902 
C     3.8663577   -0.2312471    4.4518914 
C     3.1137771   -0.3317966    3.2753883 
H     3.3868193    0.2966627    2.4220286 
C    -0.3383684   -2.4482940    1.9322941 
H    -0.6244621   -2.1206497    2.9497296 
C     0.0532777   -3.9368364    1.9971731 
H    -0.7379934   -4.4818181    2.5336427 
H     0.1195316   -4.3643583    0.9863607 
H     1.0069592   -4.1026692    2.5264075 
C     2.1041328   -2.7300416    6.7043055 
F     2.1918774   -2.0100895    7.8492090 
F     0.8421561   -3.2190204    6.6246932 
F     2.9407073   -3.7839154    6.8282626 
C     4.9424197    0.8285305    4.5330706 
F     5.6138821    0.9495346    3.3648663 
F     4.3807509    2.0460213    4.7901610 
F     5.8341736    0.5815768    5.5104858 
C     5.0501027   -0.0772404   -1.6225471 
F     5.1868372    0.9985578   -0.8074977 
F     4.4465849    0.3612821   -2.7611429 
F     6.2829566   -0.5015712   -1.9624734 
C     3.8676981   -4.9390963   -1.1277341 
F     5.0183300   -5.4212839   -0.6132537 
F     2.8584515   -5.7386799   -0.7054653 
F     3.9470745   -5.0662749   -2.4776142 
C     1.6800137    2.9433202   -5.7092758 
H     1.0113907    3.7953291   -5.9349850 
H     2.6705296    3.1765535   -6.1330493 
H     1.2697055    2.0587291   -6.2230809 
C     3.9944527    3.8493581   -1.2902871 
H     4.9853402    3.6341210   -1.7240501 
H     3.8567500    4.9442795   -1.3274636 
H     4.0003855    3.5340842   -0.2347131 
C    -5.1777747    1.9674913   -0.5900829 
H    -6.0176676    1.2507616   -0.5971630 
H    -4.8035861    2.0730495    0.4405448 
H    -5.5900002    2.9419943   -0.9045434 
C    -3.8211876    0.2296221   -5.1450943 
H    -4.8692137   -0.1105597   -5.1766135 
H    -3.7310772    1.0847186   -5.8414154 
H    -3.1689343   -0.5740618   -5.5246788 
O     3.6444118    4.2438850   -4.0490975 
O    -5.6920597    1.3512204   -3.2820682 
C     3.1680814    5.5741485   -4.3007781 
H     4.0154139    6.1284499   -4.7303380 
H     2.3264975    5.5785186   -5.0184029 
H     2.8439407    6.0633476   -3.3624040 
C    -5.9717439    2.5788697   -3.9697289 
H    -5.4158274    2.6443937   -4.9240393 
H    -7.0524146    2.5804539   -4.1758166 
H    -5.7118155    3.4541594   -3.3435909 
