112
Energy =
C     1.4327271    0.4167205   -2.8766553 
C     0.8551398    1.6912248   -2.6396168 
C     1.3868400    2.5672902   -1.6624862 
H    -0.0783699    1.9677376   -3.1460761 
Pd    0.6968461    0.6240719   -0.7080927 
P     0.1129572    1.5799250    1.3369416 
P     0.3881327   -1.5858852    0.0127222 
H     2.4885135    0.3002055   -2.5928644 
H     2.4395159    2.4166632   -1.3768070 
C     0.1917145   -2.2878365   -5.9933797 
C    -0.7037574   -1.3156091   -5.5177295 
C    -0.3229597   -0.4439258   -4.4922407 
C     0.9715253   -0.5113185   -3.9260133 
C     1.8700352   -1.4783867   -4.4346209 
C     1.4828714   -2.3619277   -5.4493192 
H    -0.1123494   -2.9737349   -6.7903756 
H    -1.7071941   -1.2385574   -5.9489667 
H    -1.0431291    0.2967932   -4.1291934 
H     2.8883484   -1.5259113   -4.0351617 
H     2.1957190   -3.1032441   -5.8249407 
C    -0.0394717    6.5614214   -0.9465759 
C    -0.9546923    5.5490208   -1.2811111 
C    -0.5074579    4.2442973   -1.5109293 
C     0.8632812    3.9198839   -1.3951281 
C     1.7697319    4.9435545   -1.0438315 
C     1.3241146    6.2539434   -0.8336031 
H    -0.3900253    7.5841167   -0.7732376 
H    -2.0222877    5.7780643   -1.3638039 
H    -1.2324932    3.4662658   -1.7667831 
H     2.8332689    4.7059956   -0.9352438 
H     2.0440950    7.0348176   -0.5685584 
Fe   -1.8892246   -1.7937823    2.8262711 
C    -0.1662741   -1.8036463    1.7364302 
C    -0.0592314   -0.8823105    2.8589402 
C    -0.2851732   -1.6495397    4.0619045 
C    -0.5175107   -3.0151737    3.7065649 
C    -0.4545843   -3.1172018    2.2835237 
C    -3.6308214   -2.3412647    1.9079227 
C    -3.6230941   -2.7610170    3.2799690 
C    -3.4699038   -1.5931352    4.1014343 
C    -3.3864640   -0.4512050    3.2383450 
C    -3.4866938   -0.9130048    1.8851089 
C     0.4472268    0.5419589    2.8804356 
H    -0.3018175   -1.2560907    5.0785097 
H    -0.7513844   -3.8263077    4.3985358 
H    -0.5997078   -4.0343860    1.7091183 
H    -3.7275903   -2.9935753    1.0391551 
H    -3.6917850   -3.7902005    3.6372930 
H    -3.4015865   -1.5820494    5.1908914 
H    -3.2679282    0.5869549    3.5477642 
H    -3.4669885   -0.2781488    1.0013171 
H     1.7080883   -3.5982689    0.2844551 
C     4.1753939   -2.8562744    1.3989702 
C     2.8612518   -2.0599225    1.2938787 
C     2.0069389   -2.5465888    0.0995771 
C     2.8271564   -2.4658204   -1.2008878 
C     4.1278478   -3.2817972   -1.0960870 
C     4.9823639   -2.8136140    0.0919299 
H     3.9334097   -3.9083194    1.6466146 
H     4.7763841   -2.4660493    2.2401227 
H     3.0887105   -0.9829098    1.1481935 
H     2.2963937   -2.1479730    2.2370936 
H     2.2330852   -2.7997102   -2.0649768 
H     3.0819378   -1.4036902   -1.3801910 
H     3.8769552   -4.3538407   -0.9745266 
H     4.6948089   -3.1963929   -2.0410254 
H     5.3231525   -1.7752096   -0.0934429 
H     5.8923678   -3.4329626    0.1823208 
H    -1.2960372   -3.2879202   -0.1466309 
C    -1.4993963   -4.3210223   -2.6780263 
C    -0.3486380   -3.4914786   -2.0744494 
C    -0.8782645   -2.6175573   -0.9212524 
C    -2.0182086   -1.6982870   -1.4056524 
C    -3.1644805   -2.5167230   -2.0256324 
C    -2.6590764   -3.4309736   -3.1532984 
H    -1.8697562   -5.0347474   -1.9153130 
H    -1.1121858   -4.9263221   -3.5171515 
H     0.0912427   -2.8512949   -2.8596198 
H     0.4456503   -4.1701049   -1.7172159 
H    -2.3859565   -1.0919387   -0.5615771 
H    -1.6081951   -0.9965300   -2.1566164 
H    -3.6362554   -3.1350378   -1.2367257 
H    -3.9502347   -1.8353309   -2.3997888 
H    -2.3070618   -2.8066877   -3.9946472 
H    -3.4855022   -4.0537461   -3.5398740 
H     1.5531460    0.4772246    2.8098830 
C     0.1068928    1.2706625    4.1936011 
H     0.6428344    0.7980967    5.0334660 
H     0.4182969    2.3274051    4.1614583 
H    -0.9732988    1.2116141    4.4032458 
C     2.8840522    5.1543118    2.4426795 
C     3.4060758    3.8848780    2.1453649 
C     2.5449618    2.8388015    1.7927579 
C     1.1480572    3.0463691    1.7439792 
C     0.6354519    4.3294124    2.0072804 
C     1.5029586    5.3741002    2.3609496 
H     3.5561118    5.9724030    2.7212306 
H     4.4861732    3.7096823    2.1868458 
H     2.9628597    1.8540241    1.5476390 
H    -0.4346156    4.5302923    1.9119549 
H     1.0914112    6.3690493    2.5580323 
C    -4.3098049    3.0050778    1.0535346 
C    -3.5891404    3.2678765    2.2288033 
C    -2.2600093    2.8404812    2.3570354 
C    -1.6343422    2.1374692    1.3036772 
C    -2.3696415    1.8795185    0.1276774 
C    -3.6970568    2.3097174    0.0010109 
H    -5.3472582    3.3418950    0.9601437 
H    -4.0632952    3.8113042    3.0526022 
H    -1.7161245    3.0655994    3.2772251 
H    -1.8862395    1.3274494   -0.6882299 
H    -4.2530003    2.0977803   -0.9181481 
