132
Energy =
C     0.5553483   -0.4440576   -3.5936881 
C     0.4331959    0.9489810   -3.3107449 
C     1.3594700    1.6033431   -2.4623816 
H    -0.4718346    1.4813636   -3.6286183 
Pd    0.3274960   -0.1184931   -1.3967411 
P     0.2344117    0.8278549    0.7323922 
P    -0.3642781   -2.2653904   -0.7784216 
H     1.5716257   -0.8669229   -3.5839220 
H     2.3474024    1.1317354   -2.3481021 
C    -2.3003700   -2.8299979   -5.7733019 
C    -2.7164261   -1.6433319   -5.1454091 
C    -1.7990715   -0.8521597   -4.4460519 
C    -0.4358669   -1.2222078   -4.3645268 
C    -0.0287558   -2.4055677   -5.0238951 
C    -0.9503031   -3.2046954   -5.7135250 
H    -3.0228394   -3.4506479   -6.3128593 
H    -3.7663170   -1.3364604   -5.1978578 
H    -2.1504414    0.0533610   -3.9402301 
H     1.0283339   -2.6945775   -5.0019048 
H    -0.6097612   -4.1177407   -6.2131036 
C     1.3836328    5.7712656   -1.4171451 
C     2.4737298    4.9460505   -1.1045696 
C     2.4361945    3.5839209   -1.4252253 
C     1.3117400    3.0210664   -2.0720671 
C     0.2047355    3.8582202   -2.3435533 
C     0.2429865    5.2179334   -2.0221229 
H     1.4139380    6.8390045   -1.1783903 
H     3.3605345    5.3664545   -0.6185849 
H     3.2918276    2.9425041   -1.1855296 
H    -0.6955798    3.4474102   -2.8103660 
H    -0.6241110    5.8507060   -2.2366004 
Fe   -0.6937180   -0.9331286    3.7440178 
C    -0.8120957   -0.1528550    1.8650111 
C    -0.9313707   -1.6051017    1.8471285 
C    -2.0718552   -1.9514260    2.6579218 
C    -2.6431686   -0.7450457    3.1840468 
C    -1.8700149    0.3618864    2.7072504 
C     0.6980460   -2.1232906    4.6703419 
C     1.2073510   -0.7953052    4.5022904 
C     0.3184824    0.1089112    5.1797850 
C    -0.7396005   -0.6650644    5.7642245 
C    -0.5075355   -2.0453583    5.4454478 
C    -0.6409660    2.4374487    0.6711278 
C    -0.1045217    3.6545398    1.1196257 
C    -0.8402131    4.8505067    1.0243346 
C    -2.1198579    4.8047577    0.4304261 
C    -2.6704253    3.5987691   -0.0653970 
C    -1.9184300    2.4252196    0.0698290 
C     1.8742090    1.0994319    1.4864174 
C     2.0333582    1.7922703    2.7027904 
C     3.3035938    1.9818396    3.2655226 
C     4.4265405    1.4514540    2.5824042 
C     4.2955447    0.7232614    1.3776695 
C     3.0045042    0.5647172    0.8436586 
C    -0.0549786   -2.5523419    1.0655411 
H    -2.4178355   -2.9626045    2.8773484 
H    -3.4954097   -0.6854966    3.8634260 
H    -2.0460384    1.4171075    2.9207537 
H     1.1517981   -3.0336710    4.2754762 
H     2.1061036   -0.5215597    3.9492122 
H     0.4237795    1.1923916    5.2469730 
H    -1.5854402   -0.2716590    6.3309652 
H    -1.1468968   -2.8845586    5.7257572 
H     0.9101896    3.6975849    1.5239941 
H    -2.3319054    1.4826895   -0.3048783 
H     1.1533123    2.1693760    3.2328868 
H     2.8730329    0.0003993   -0.0886279 
H     0.9904552   -2.2042593    1.1699722 
H     0.5450918   -3.1054036   -2.7577787 
H    -2.1101902   -2.7190204   -2.3000688 
C    -4.3917825   -1.3153189   -1.5416617 
C    -2.9503913   -1.1937118   -1.0206819 
C    -2.1669718   -2.5158951   -1.2098770 
C    -2.9132339   -3.6817668   -0.5241777 
C    -4.3483048   -3.8024324   -1.0722007 
C    -5.1310558   -2.4927468   -0.8862303 
H    -4.3645011   -1.4654366   -2.6381946 
H    -4.9315813   -0.3674285   -1.3613090 
H    -2.9625207   -0.9292949    0.0537539 
H    -2.4175958   -0.3784753   -1.5455386 
H    -2.3755366   -4.6344772   -0.6581486 
H    -2.9622421   -3.4822942    0.5614164 
H    -4.3044569   -4.0579627   -2.1493457 
H    -4.8659600   -4.6383229   -0.5682075 
H    -5.2508094   -2.2913982    0.1967471 
H    -6.1483060   -2.5895146   -1.3057743 
C     1.0287405   -5.7845856   -2.7848734 
C     0.1323271   -4.9771014   -1.8244267 
C     0.6334302   -3.5195307   -1.7364368 
C     2.1234980   -3.4360314   -1.3334138 
C     2.9978758   -4.2613457   -2.2943611 
C     2.5100358   -5.7170783   -2.3794124 
H     0.9097223   -5.3800018   -3.8095668 
H     0.6833813   -6.8333412   -2.8178276 
H     0.1356793   -5.4542459   -0.8283970 
H    -0.9078448   -4.9963906   -2.1924138 
H     2.4493717   -2.3771582   -1.3238054 
H     2.2574938   -3.8189617   -0.3031877 
H     2.9598593   -3.8014283   -3.3020943 
H     4.0528799   -4.2224529   -1.9683007 
H     2.6418193   -6.2029426   -1.3921767 
H     3.1291842   -6.2864925   -3.0952249 
C    -0.1339758   -4.0072424    1.5586145 
H     0.0117347   -4.0202184    2.6516305 
H    -1.1054075   -4.4748410    1.3423048 
H     0.6536939   -4.6263313    1.1027249 
C    -0.2626385    6.1585856    1.5095242 
H    -0.5926839    6.9906272    0.8660918 
H    -0.5940930    6.3846528    2.5406566 
H     0.8385463    6.1236851    1.5140165 
C    -4.0171070    3.6080512   -0.7490144 
H    -4.8260439    3.8730708   -0.0444440 
H    -4.0397526    4.3635316   -1.5534756 
H    -4.2509642    2.6195983   -1.1777808 
O    -2.8222494    5.9719886    0.2171559 
C    -3.6137822    6.4480276    1.3144723 
H    -4.1263221    7.3533682    0.9565828 
H    -4.3653335    5.6956070    1.6207183 
H    -2.9857954    6.7039737    2.1883694 
C     3.4952726    2.6925516    4.5840407 
H     2.5265371    2.9243840    5.0550627 
H     4.0907132    2.0721279    5.2754112 
H     4.0461382    3.6416136    4.4536764 
C     5.5064448    0.1211077    0.7037908 
H     6.2557963   -0.1816488    1.4532457 
H     5.2260039   -0.7577459    0.0996578 
H     5.9926686    0.8468855    0.0246977 
O     5.6629953    1.5824563    3.1721224 
C     6.4765140    2.6675318    2.7030475 
H     7.4000067    2.6414424    3.3000668 
H     6.7285555    2.5527203    1.6319843 
H     5.9687523    3.6396680    2.8506177 
