124
Energy =
C    -0.7814980    2.5605724   -2.0993128 
C    -1.7492819    1.6035518   -2.5184626 
C    -2.7647388    1.1521231   -1.6462475 
H    -1.6354579    1.1281690   -3.5006701 
Pd   -0.6988351    0.6601631   -0.8132854 
P    -1.1888925   -1.5075673   -0.0602145 
P     1.1632936    1.0038548    0.6204126 
H    -1.1026188    3.2893608   -1.3425297 
H    -2.9622708    1.7681039   -0.7549955 
C     2.4691126    3.8347151   -4.6291665 
C     1.9307110    2.5450659   -4.7733559 
C     0.8760839    2.1262382   -3.9568037 
C     0.3263010    2.9875458   -2.9776597 
C     0.8643069    4.2893998   -2.8613915 
C     1.9273221    4.7062368   -3.6725552 
H     3.3006700    4.1589078   -5.2630802 
H     2.3453351    1.8585884   -5.5189917 
H     0.4968400    1.1027175   -4.0555369 
H     0.4366820    4.9867900   -2.1329946 
H     2.3279309    5.7194592   -3.5634467 
C    -5.9482746   -1.6146546   -2.4951209 
C    -5.8788001   -0.9520526   -1.2597487 
C    -4.8443308   -0.0431155   -1.0110669 
C    -3.8459211    0.2120172   -1.9813571 
C    -3.9497917   -0.4378591   -3.2329949 
C    -4.9880178   -1.3414271   -3.4835911 
H    -6.7574497   -2.3241020   -2.6957058 
H    -6.6367606   -1.1378678   -0.4916905 
H    -4.8012659    0.4834674   -0.0511294 
H    -3.2186135   -0.2356545   -4.0213478 
H    -5.0539672   -1.8323064   -4.4600017 
Fe    2.4238367   -1.4512962    3.0297204 
C     1.1440348   -0.1729098    2.0292697 
C     0.6807018   -1.5520907    1.9639542 
C     0.5034902   -2.0180916    3.3161580 
C     0.8525643   -0.9592079    4.2165786 
C     1.2667408    0.1661983    3.4334060 
C     4.4014421   -0.9593755    3.2857380 
C     3.9065955   -1.6961426    4.4111097 
C     3.4391193   -2.9684211    3.9388536 
C     3.6485314   -3.0202712    2.5212652 
C     4.2408722   -1.7782609    2.1165173 
C     0.3182644   -2.3241657    0.7198072 
H     0.1927633   -3.0246506    3.6029784 
H     0.8537413   -1.0159547    5.3066355 
H     1.6098882    1.1204484    3.8351276 
H     4.8370388    0.0398718    3.3203059 
H     3.8695039   -1.3430137    5.4433048 
H     2.9838030   -3.7508200    4.5489268 
H     3.3998571   -3.8615349    1.8717076 
H     4.5370046   -1.5112615    1.1014647 
H     1.7588932    2.6388234    2.2980333 
C    -0.5355783    4.0929350    2.9452957 
C    -0.4070768    2.7754149    2.1606334 
C     0.9866434    2.6501390    1.5044604 
C     1.2462770    3.8628350    0.5909077 
C     1.1292579    5.1819881    1.3752100 
C    -0.2434673    5.3108354    2.0543325 
H     0.1766839    4.0775348    3.7939997 
H    -1.5467938    4.1656946    3.3846253 
H    -1.1726450    2.7445749    1.3583836 
H    -0.6088289    1.9150949    2.8208487 
H     2.2319620    3.7976389    0.1020705 
H     0.4991462    3.8530715   -0.2173159 
H     1.9276955    5.2222205    2.1420559 
H     1.3057783    6.0327646    0.6923764 
H    -1.0282342    5.3867264    1.2748810 
H    -0.2959531    6.2422885    2.6454611 
H     3.1134070   -0.1721964    0.0179363 
C     5.3750778    1.4256792    0.2607970 
C     3.9555451    1.6341015    0.8229156 
C     2.9112164    0.9128145   -0.0530363 
C     3.0003633    1.3257309   -1.5317103 
C     4.4263120    1.1268386   -2.0724093 
C     5.4624722    1.8669390   -1.2101834 
H     5.6513628    0.3559240    0.3376696 
H     6.1025436    1.9820848    0.8789008 
H     3.7456158    2.7183679    0.8439301 
H     3.8823402    1.2684685    1.8612936 
H     2.2748982    0.7391976   -2.1226458 
H     2.7074920    2.3848991   -1.6508725 
H     4.6648486    0.0442262   -2.0810622 
H     4.4724626    1.4729605   -3.1202914 
H     5.2776424    2.9575911   -1.2754695 
H     6.4813192    1.6951128   -1.6005377 
H    -3.4730361   -1.4693117    0.5252808 
C    -3.7812792   -0.2606038    3.0228418 
C    -2.5498831   -0.3188017    2.1029188 
C    -2.5869856   -1.5623536    1.1836668 
C    -2.7456470   -2.8595091    2.0071496 
C    -3.9841686   -2.7797643    2.9208003 
C    -3.9287495   -1.5518259    3.8427650 
H    -4.6917341   -0.1142827    2.4077993 
H    -3.7046953    0.6182323    3.6883492 
H    -1.6325552   -0.3454083    2.7191475 
H    -2.4858464    0.5947877    1.4836893 
H    -2.8300043   -3.7367774    1.3447113 
H    -1.8477188   -3.0093393    2.6316377 
H    -4.8946812   -2.7266579    2.2914802 
H    -4.0636471   -3.7086075    3.5136993 
H    -3.0636719   -1.6481472    4.5283588 
H    -4.8325868   -1.5055219    4.4758920 
H    -2.7944484   -2.3620203   -1.5962797 
C    -2.1746037   -4.9474997   -2.4070276 
C    -1.6250278   -4.1429923   -1.2131488 
C    -1.7236245   -2.6230110   -1.4792707 
C    -1.0083699   -2.2502680   -2.8012475 
C    -1.5443738   -3.0755295   -3.9848383 
C    -1.4481408   -4.5844256   -3.7110475 
H    -3.2564649   -4.7363360   -2.5163275 
H    -2.0806609   -6.0278649   -2.1962177 
H    -0.5673549   -4.4245422   -1.0503548 
H    -2.1717029   -4.4174207   -0.2961096 
H    -1.1285004   -1.1688804   -2.9944392 
H     0.0776597   -2.4270034   -2.7021071 
H    -2.6031644   -2.8080859   -4.1603685 
H    -0.9896170   -2.8088710   -4.9026793 
H    -0.3825368   -4.8779007   -3.6306157 
H    -1.8695396   -5.1551165   -4.5575877 
H     0.0137697   -3.3390198    1.0296005 
C     1.4507483   -2.4295964   -0.3215645 
H     1.2581159   -3.2384941   -1.0440128 
H     1.5697168   -1.4907038   -0.8904844 
H     2.3987350   -2.6393366    0.1956699 
