124
Energy =
C     1.1595906    1.1584286   -2.8944716 
C     2.0674279    0.1294052   -2.5161701 
C     1.6875420   -1.2348506   -2.4920131 
H     3.0296160    0.4151046   -2.0752914 
Pd    0.3564196    0.0332898   -1.1335168 
P    -0.0328982   -1.5175210    0.5508467 
P    -0.9872094    1.7089281   -0.2388045 
H     0.3339265    0.8832745   -3.5676945 
H     0.8574886   -1.5411420   -3.1468122 
C     2.1186817    5.3528629   -2.9836073 
C     2.9488754    4.4650054   -2.2786065 
C     2.6320774    3.1055388   -2.2067684 
C     1.4918007    2.5953687   -2.8737918 
C     0.6596417    3.5019160   -3.5698866 
C     0.9649171    4.8674440   -3.6172866 
H     2.3709340    6.4170003   -3.0358517 
H     3.8450044    4.8376018   -1.7726998 
H     3.2782588    2.4420348   -1.6230398 
H    -0.2342169    3.1279331   -4.0794742 
H     0.3063215    5.5503669   -4.1640154 
C     4.1471645   -4.5041071   -1.1509751 
C     2.9227199   -4.7430054   -1.7919459 
C     2.1374674   -3.6695883   -2.2289113 
C     2.5478843   -2.3327635   -2.0151804 
C     3.7829605   -2.1072119   -1.3619874 
C     4.5759144   -3.1818345   -0.9485568 
H     4.7640180   -5.3387979   -0.8049540 
H     2.5837085   -5.7695684   -1.9655197 
H     1.1998463   -3.8662956   -2.7575175 
H     4.1301689   -1.0880619   -1.1663718 
H     5.5301369   -2.9906377   -0.4486485 
Fe   -2.8658971   -1.4991717    2.6790791 
C    -1.0544288   -0.9742526    1.9481507 
C    -1.9770957    0.1589075    1.9525817 
C    -2.3788783    0.3604285    3.3244287 
C    -1.7452881   -0.6269063    4.1476961 
C    -0.9332486   -1.4541656    3.3102109 
C    -4.6253159   -1.6699239    1.6523813 
C    -3.7981228   -2.8167574    1.4132396 
C    -3.5211579   -3.4401517    2.6774615 
C    -4.1813529   -2.6767323    3.6982754 
C    -4.8641091   -1.5831816    3.0655121 
C     1.6379522   -1.7359601    1.3065360 
C     2.3659582   -0.5423192    1.4761141 
C     3.6939030   -0.5807759    1.9203467 
C     4.2977387   -1.7995530    2.2534465 
C     3.5635457   -2.9850966    2.1033358 
C     2.2513519   -2.9635217    1.6098559 
C    -0.6282224   -3.1848684    0.0771809 
C    -1.0749377   -3.3705531   -1.2395769 
C    -1.5402570   -4.6248739   -1.6613186 
C    -1.5434117   -5.7134289   -0.7804001 
C    -1.1067314   -5.5242645    0.5398988 
C    -0.6749365   -4.2647717    0.9773694 
C    -2.4260549    0.9948153    0.7742059 
H    -3.0751938    1.1203462    3.6790394 
H    -1.8845453   -0.7465112    5.2234046 
H    -0.3030021   -2.2817529    3.6409761 
H    -4.9995025   -0.9784311    0.8944554 
H    -3.4377660   -3.1525221    0.4395220 
H    -2.9305047   -4.3419199    2.8346035 
H    -4.1551580   -2.8813676    4.7700353 
H    -5.4433451   -0.8094212    3.5728891 
H     1.9108394    0.4241774    1.2271252 
H     1.7467882   -3.9155144    1.4346869 
H    -1.0585637   -2.5290306   -1.9399565 
H    -0.3750415   -4.1376469    2.0209483 
H    -2.8731039    0.3227981    0.0173443 
C    -3.4537636    2.0671411    1.1656179 
H    -4.3083187    1.5911272    1.6771854 
H    -3.0103256    2.8130510    1.8471577 
H    -3.8363907    2.5914355    0.2762818 
C     4.4869132    0.7061800    1.9011986 
F     4.7007765    1.1019896    0.6083469 
F     3.8243807    1.7212139    2.5056757 
F     5.6906750    0.5836209    2.4887068 
C     4.2175077   -4.3034262    2.4639984 
F     3.5323139   -5.3592291    1.9673663 
F     5.4833568   -4.3709644    1.9807236 
F     4.2938702   -4.4589328    3.8047333 
C    -1.9967643   -4.7687794   -3.0965111 
F    -2.4658585   -5.9988266   -3.3685629 
F    -2.9694590   -3.8702107   -3.3856344 
F    -0.9676664   -4.5163342   -3.9535890 
C    -1.0819567   -6.6757421    1.5246284 
F    -1.3003537   -7.8615345    0.9279722 
F     0.1143398   -6.7326381    2.1579672 
F    -2.0292188   -6.5192738    2.4886572 
H     5.3363224   -1.8276452    2.5929796 
H    -1.8804689   -6.6970892   -1.1155931 
C    -3.2726685    3.8590203   -3.6328532 
C    -3.0276720    2.4708291   -3.7041597 
C    -2.3160390    1.8718145   -2.6532521 
C    -1.8761827    2.6309144   -1.5471738 
C    -2.1720710    4.0019308   -1.4818491 
C    -2.8582688    4.6363944   -2.5381886 
H    -3.8082348    4.3459025   -4.4568231 
H    -2.0892614    0.7980279   -2.6966936 
H    -1.8664647    4.5918740   -0.6122706 
C    -3.5096263    1.6634613   -4.8886030 
H    -3.1853749    0.6118819   -4.8225377 
H    -4.6128328    1.6765506   -4.9505381 
H    -3.1276322    2.0828124   -5.8364576 
C    -3.1110311    6.1266957   -2.4888920 
H    -3.5321412    6.4286302   -1.5140528 
H    -2.1642433    6.6831310   -2.6209829 
H    -3.8060946    6.4482459   -3.2810301 
C     1.5651888    4.4608315    2.4621486 
C     1.0177115    3.2788393    2.9920540 
C     0.2094065    2.4876520    2.1592170 
C    -0.0423926    2.8603760    0.8204195 
C     0.5524225    4.0308648    0.3026512 
C     1.3431967    4.8527979    1.1291807 
H     2.1828985    5.0976751    3.1070872 
H    -0.2248686    1.5739156    2.5701509 
H     0.4010176    4.3156924   -0.7428453 
C     1.3060026    2.8528026    4.4140115 
H     0.5910261    2.0869690    4.7580495 
H     2.3215651    2.4224319    4.4837812 
H     1.2619597    3.7093944    5.1081040 
C     1.9498957    6.1349962    0.6045520 
H     1.5176014    6.4197291   -0.3672270 
H     1.7926859    6.9644009    1.3158456 
H     3.0415175    6.0251389    0.4683095 
