124
Energy =
C     0.3263154   -2.1677379   -2.1680237 
C     1.3074881   -1.2554054   -2.6701962 
C     2.5130516   -1.0037293   -1.9888472 
H     1.0645224   -0.6504027   -3.5526399 
Pd    0.5944918   -0.5096803   -0.7055124 
P     1.3474854    1.3553305    0.5470547 
P    -1.2277520   -1.0630581    0.6836509 
H     0.6972177   -3.0104990   -1.5674071 
H     2.7987501   -1.6970140   -1.1840157 
C    -3.3399135   -3.0305103   -4.2492131 
C    -2.7806367   -3.9657050   -3.3660010 
C    -1.6018141   -3.6625952   -2.6757205 
C    -0.9519673   -2.4213003   -2.8584282 
C    -1.5416984   -1.4791240   -3.7344610 
C    -2.7183652   -1.7835070   -4.4262539 
H    -4.2624053   -3.2679060   -4.7888636 
H    -3.2702936   -4.9313097   -3.2055843 
H    -1.1685620   -4.3995625   -1.9908761 
H    -1.0740394   -0.4987401   -3.8781383 
H    -3.1555979   -1.0433612   -5.1047470 
C     5.7130340    1.5455391   -3.3160223 
C     4.6660226    1.2283803   -4.1971136 
C     3.6157794    0.4048933   -3.7792859 
C     3.5965481   -0.1314226   -2.4690088 
C     4.6775841    0.1667321   -1.6070038 
C     5.7158555    1.0074875   -2.0199447 
H     6.5301264    2.1955525   -3.6456298 
H     4.6709081    1.6227558   -5.2184318 
H     2.8164343    0.1601352   -4.4861130 
H     4.6915223   -0.2493925   -0.5960458 
H     6.5308378    1.2380845   -1.3265051 
Fe   -2.5638074    2.1205223    0.2757498 
C    -1.9558370    0.4722149    1.3260949 
C    -1.2024068    1.6430475    1.7581427 
C    -2.1631341    2.6115527    2.2174420 
C    -3.4801294    2.0637972    2.0902652 
C    -3.3637247    0.7513466    1.5317359 
C    -3.9101225    2.1485397   -1.2647559 
C    -3.8169253    3.4367432   -0.6374553 
C    -2.4582157    3.8873374   -0.7482903 
C    -1.7168463    2.8830250   -1.4530856 
C    -2.6088047    1.8106247   -1.7671082 
C     0.2803494    1.7506231    2.0432900 
H    -1.9151118    3.6028013    2.6028948 
H    -4.4140350    2.5723953    2.3363478 
H    -4.1852172    0.0713784    1.3014174 
H    -4.8099884    1.5333772   -1.3269098 
H    -4.6318127    3.9668119   -0.1410992 
H    -2.0598942    4.8254364   -0.3601848 
H    -0.6659532    2.9280552   -1.7245899 
H    -2.3329930    0.8975525   -2.2972775 
H     0.5013025    2.8024995    2.2883135 
C     0.6633063    0.9112945    3.2808981 
H    -0.0015553    1.1792415    4.1190966 
H     0.5420922   -0.1660413    3.0948667 
H     1.7060704    1.1056382    3.5812002 
C     5.7893993    1.3841636    2.1132200 
C     5.1774036    2.5359972    1.5809287 
C     3.8540831    2.5013571    1.1378743 
C     3.0820378    1.3184820    1.2070722 
C     3.6810751    0.1459521    1.7410809 
C     5.0188404    0.2117634    2.1795935 
H     5.7449994    3.4700440    1.5024962 
H     3.4179995    3.4098029    0.7137204 
H     5.4769198   -0.7005132    2.5811716 
C     1.3749540    5.2205706   -2.0248243 
C     0.8979208    5.3111656   -0.7027923 
C     0.8919345    4.1500961    0.0885203 
C     1.3449332    2.9194232   -0.4273109 
C     1.8242648    2.8615355   -1.7487907 
C     1.8482734    4.0114108   -2.5630203 
H     1.3714278    6.1183382   -2.6548593 
H     0.5010188    4.2229760    1.1066344 
H     2.1804815    1.9095655   -2.1526610 
C     7.2180214    1.4176664    2.6036610 
H     7.8766451    1.9291817    1.8800479 
H     7.2877646    1.9764216    3.5555649 
H     7.6131776    0.4037901    2.7785145 
C     2.9609127   -1.1749420    1.8495505 
H     2.6096662   -1.3656526    2.8789122 
H     2.0722821   -1.2010650    1.1950483 
H     3.6212728   -2.0139461    1.5695131 
C     0.3905896    6.6282452   -0.1582427 
H    -0.4200384    7.0318097   -0.7914985 
H     0.0042468    6.5213888    0.8688982 
H     1.1946453    7.3860070   -0.1417826 
C     2.3783429    3.9479437   -3.9775603 
H     2.0313585    4.8056668   -4.5765175 
H     3.4835700    3.9579719   -3.9760949 
H     2.0667944    3.0181819   -4.4820874 
C     0.4593432   -4.1374776    3.7928868 
C     0.8841510   -4.0769418    2.4783809 
C     0.3477329   -3.0912165    1.6157159 
C    -0.6170586   -2.1768947    2.0403913 
H     0.8751746   -4.8839183    4.4785009 
H     1.6382514   -4.7744772    2.1005113 
H     0.7063516   -3.0414882    0.5822150 
C    -1.1101326   -2.2476786    3.3947346 
C    -0.5335745   -3.2385921    4.2800538 
C    -0.9809045   -3.3162675    5.6324316 
C    -1.9651083   -2.4686607    6.1093067 
C    -2.5444054   -1.5087655    5.2407954 
C    -2.1291863   -1.4021220    3.9227773 
H    -0.5307926   -4.0695312    6.2883040 
H    -2.3007320   -2.5403052    7.1488020 
H    -3.3306366   -0.8436383    5.6130144 
H    -2.5905453   -0.6540723    3.2794777 
C    -2.8947668   -3.3347258    0.4613282 
C    -2.6714343   -2.0192211    0.0631413 
C    -3.5691971   -1.4108014   -0.8648267 
C    -4.6695275   -2.0972515   -1.3388961 
H    -2.2179410   -3.8302826    1.1633808 
H    -3.3844350   -0.3843908   -1.1736811 
H    -5.3486045   -1.6132975   -2.0490295 
C    -4.9279969   -3.4417471   -0.9413754 
C    -4.0111375   -4.0729753   -0.0271511 
C    -4.2394827   -5.4273169    0.3572858 
C    -5.3228886   -6.1299573   -0.1450549 
C    -6.2272857   -5.5057683   -1.0470065 
C    -6.0356020   -4.1885839   -1.4345564 
H    -3.5423093   -5.9045768    1.0550286 
H    -5.4883624   -7.1704007    0.1530085 
H    -7.0802989   -6.0724761   -1.4346119 
H    -6.7314124   -3.7077213   -2.1309341 
