122
Energy =
C     1.2569887    2.5430136   -1.4863673 
C     0.3910249    2.1297181   -2.5565530 
C    -0.9998011    2.0616254   -2.3704733 
H     0.8228830    1.7647246   -3.4969538 
Pd    0.1903271    0.7020779   -0.8688621 
P    -0.7079742   -1.4747971   -1.2319252 
P     1.0245474    0.5606316    1.3381325 
H     0.8793557    3.3257705   -0.8176304 
H    -1.4060728    2.4803121   -1.4357043 
C     5.5563059    2.2435465   -1.6669575 
C     4.7606843    1.4073790   -2.4680385 
C     3.3664879    1.5126946   -2.4331462 
C     2.7279068    2.4562217   -1.5920840 
C     3.5458040    3.3166488   -0.8233883 
C     4.9415242    3.2074575   -0.8534037 
H     6.6471690    2.1552290   -1.6902948 
H     5.2316453    0.6666567   -3.1232164 
H     2.7658094    0.8425233   -3.0560612 
H     3.0770755    4.0893054   -0.2050739 
H     5.5520034    3.8838865   -0.2459900 
C    -4.0429192    1.4003716   -5.3149432 
C    -2.7243644    1.6546176   -5.7281351 
C    -1.7116891    1.8344688   -4.7809348 
C    -2.0050036    1.7768952   -3.3971026 
C    -3.3371632    1.5146910   -2.9972767 
C    -4.3445276    1.3232669   -3.9461615 
H    -4.8332646    1.2636079   -6.0601799 
H    -2.4884986    1.7243265   -6.7950370 
H    -0.6950506    2.0617384   -5.1175389 
H    -3.5653234    1.4508519   -1.9295942 
H    -5.3679488    1.1128995   -3.6204696 
Fe   -3.6190281    0.3646208    2.5195885 
C    -1.7213065    0.3602546    1.8015614 
C    -2.4876693   -0.7165228    1.1955884 
C    -3.6372160   -0.1280149    0.5500102 
H    -4.4199230   -0.6787615    0.0281459 
C    -3.5753726    1.2945436    0.7209215 
H    -4.3194465    2.0167529    0.3789131 
C    -2.3980287    1.5965986    1.4811070 
H    -2.0942475    2.5906238    1.8110223 
C    -3.5842609    0.7774881    4.5225648 
H    -2.7320621    1.1579184    5.0893190 
C    -3.9095627   -0.6037581    4.3101211 
H    -3.3566570   -1.4572188    4.7065627 
C    -5.0957454   -0.6638317    3.5022913 
H    -5.5964759   -1.5701501    3.1564689 
C    -5.5096973    0.6814179    3.2259204 
H    -6.3693100    0.9767854    2.6214575 
C    -4.5760639    1.5720450    3.8550072 
H    -4.6019090    2.6625867    3.8115030 
C    -2.0813630   -2.1484904    1.1472193 
C    -1.1658507   -2.6046005    0.1594515 
C    -0.6983950   -3.9333362    0.2071724 
H     0.0371948   -4.2788859   -0.5242238 
C    -1.1563024   -4.8212730    1.1885995 
H    -0.7734196   -5.8466001    1.2142657 
C    -2.1155880   -4.3968038    2.1183555 
H    -2.5015148   -5.0912925    2.8716404 
C    -2.5671001   -3.0720128    2.0930002 
H    -3.2918851   -2.7159891    2.8274353 
C    -0.4175217    0.2795075    2.5607165 
H    -0.3738125    1.1940929    3.1769261 
C    -0.2611270   -0.9032448    3.5284568 
H    -1.0929345   -0.8755094    4.2507887 
H    -0.2929153   -1.8783216    3.0238557 
H     0.6852374   -0.8294235    4.0895319 
C     2.6569364   -3.6111522   -3.6782868 
C     1.3669447   -4.1651932   -3.6370969 
C     0.3510056   -3.5400514   -2.9020489 
C     0.6206711   -2.3557469   -2.1805703 
C     1.9152018   -1.8054069   -2.2369829 
C     2.9284347   -2.4253802   -2.9812997 
H     3.4447920   -4.1002178   -4.2605077 
H     1.1476420   -5.0855976   -4.1881610 
H    -0.6579396   -3.9657302   -2.9010083 
H     2.1218876   -0.8769480   -1.6916152 
H     3.9274280   -1.9778050   -3.0144323 
C    -4.0981880   -2.2201218   -4.3449422 
C    -2.8764700   -1.6409240   -4.7218851 
C    -1.8953301   -1.3810968   -3.7597356 
C    -2.1117944   -1.7260176   -2.4077309 
C    -3.3340075   -2.3177678   -2.0374149 
C    -4.3254918   -2.5527663   -3.0025501 
H    -4.8667855   -2.4199527   -5.0986835 
H    -2.6883320   -1.3834979   -5.7683084 
H    -0.9416191   -0.9379075   -4.0647516 
H    -3.5030629   -2.6326853   -1.0037813 
H    -5.2693257   -3.0209379   -2.7036222 
H     2.6222410   -0.5975304    2.7649758 
C     4.8659771   -1.1315003    1.1202883 
C     3.6807179   -0.1728152    0.9112100 
C     2.4202526   -0.6447755    1.6776365 
C     2.0695775   -2.1002750    1.3106152 
C     3.2641346   -3.0438226    1.5345766 
C     4.5020004   -2.5780194    0.7530386 
H     5.1810457   -1.0907202    2.1816924 
H     5.7252799   -0.7788682    0.5215244 
H     3.4419610   -0.1080301   -0.1669984 
H     3.9736854    0.8458711    1.2172280 
H     1.2009543   -2.4523769    1.8866783 
H     1.7767354   -2.1420775    0.2483937 
H     3.5023022   -3.0834901    2.6159249 
H     2.9777610   -4.0684961    1.2359596 
H     4.2880178   -2.6385531   -0.3318257 
H     5.3568775   -3.2501282    0.9472690 
H     2.4867968    2.4489106    1.2228271 
C     3.0560903    3.4532914    3.7284832 
C     2.4159118    2.1010386    3.3547828 
C     1.7212660    2.1900711    1.9766512 
C     0.6715116    3.3231571    1.9941729 
C     1.3139010    4.6757516    2.3515922 
C     2.0344178    4.6005572    3.7069951 
H     3.8688446    3.6706932    3.0075180 
H     3.5296481    3.3750720    4.7234984 
H     1.6734942    1.8174569    4.1275181 
H     3.1940893    1.3195881    3.3575060 
H     0.1403847    3.3791163    1.0276340 
H    -0.0968877    3.0988356    2.7589347 
H     2.0377201    4.9611542    1.5633552 
H     0.5389897    5.4629956    2.3662758 
H     1.2845710    4.4362559    4.5061745 
H     2.5304706    5.5610117    3.9334083 
