90
Energy =
C     2.0924251   -0.4924565    2.2114827 
C     2.7523256    0.2014930    1.1761657 
C     2.4277177    1.5536501    0.8804537 
H     3.4816612   -0.3259921    0.5497232 
Pd    0.6400085    0.2015413    0.4811061 
P    -0.5420359    1.6653179   -0.9610615 
P    -0.9184636   -1.6098570    0.6664216 
H     1.5475985    0.1227991    2.9417590 
H     1.9521555    2.1213687    1.6939954 
C     3.0638197   -4.4013721    3.7336495 
C     2.2013737   -3.5474053    4.4377675 
C     1.8970405   -2.2809972    3.9253640 
C     2.4368820   -1.8400438    2.6929424 
C     3.3308139   -2.7022131    2.0135292 
C     3.6358145   -3.9672613    2.5260833 
H     3.3049945   -5.3922098    4.1315808 
H     1.7716753   -3.8653521    5.3932061 
H     1.2380769   -1.6120551    4.4900677 
H     3.8032637   -2.3806932    1.0800629 
H     4.3302214   -4.6175359    1.9842108 
C     4.5834254    4.0455753   -1.8921306 
C     3.8675772    4.6111010   -0.8259094 
C     3.1705134    3.7876866    0.0661514 
C     3.1659592    2.3810571   -0.0911927 
C     3.9011472    1.8274668   -1.1648577 
C     4.6025031    2.6500783   -2.0519444 
H     5.1303437    4.6868807   -2.5906739 
H     3.8589410    5.6966724   -0.6838788 
H     2.6270520    4.2367689    0.9045539 
H     3.9128536    0.7432731   -1.3188794 
H     5.1637573    2.2013796   -2.8780847 
Fe   -3.0663177   -0.5099754   -1.6549911 
C    -1.6667905    0.8307799   -2.1248845 
C    -2.9349158    1.2132866   -2.7214297 
H    -3.4866266    2.1350196   -2.5490899 
C    -3.3649080    0.1494478   -3.5794654 
H    -4.3018214    0.1267624   -4.1389069 
C    -2.3742689   -0.8845187   -3.5516183 
H    -2.4210607   -1.8346666   -4.0862698 
C    -1.3243417   -0.4676638   -2.6729903 
C    -2.6311748   -1.4016110    0.0799621 
C    -3.4022376   -2.2943080   -0.7655954 
H    -3.0876293   -3.2702571   -1.1373158 
C    -4.6560075   -1.6633406   -1.0577165 
H    -5.4409548   -2.0741656   -1.6950267 
C    -4.6853991   -0.3931109   -0.3959271 
H    -5.4965377    0.3357185   -0.4390277 
C    -3.4503834   -0.2309314    0.3125493 
C    -0.3080979   -3.0665865   -0.3821444 
C    -1.1898563   -2.1158763    2.4619528 
H    -0.4164236   -1.0248076   -2.4370603 
H    -3.1653579    0.6360554    0.9086849 
C    -1.4943838    2.8289236    0.1880981 
C     0.4907489    2.6927026   -2.1431034 
H    -0.8950290   -2.9264729   -1.3082101 
H    -0.2338318   -2.5837473    2.7590037 
H    -1.7258306    2.1576125    1.0364503 
H     1.2466910    3.1801840   -1.5040237 
C    -0.5388397    3.9132649    0.7213799 
H    -1.0336899    4.4680492    1.5375585 
H     0.3866825    3.4739028    1.1247718 
H    -0.2609737    4.6412216   -0.0589597 
C    -2.8189014    3.4244654   -0.3152631 
H    -3.2337166    4.0831871    0.4688205 
H    -2.6874485    4.0321970   -1.2250950 
H    -3.5625352    2.6384644   -0.5186363 
C    -0.3046810    3.7656111   -2.9052513 
H     0.3705048    4.2862094   -3.6079447 
H    -1.1217932    3.3170287   -3.4970288 
H    -0.7345533    4.5281902   -2.2357005 
C     1.2106939    1.7349086   -3.1117122 
H     1.9989306    2.2834176   -3.6542475 
H     1.6896658    0.8968681   -2.5758809 
H     0.5068987    1.3156258   -3.8515075 
C     1.1794334   -2.9065340   -0.7377490 
H     1.4642619   -3.6587156   -1.4947630 
H     1.4011491   -1.9024501   -1.1451854 
H     1.8134445   -3.0631003    0.1488384 
C    -0.5925322   -4.4707842    0.1743583 
H    -0.2034000   -5.2235561   -0.5345287 
H    -0.0852845   -4.6335503    1.1411576 
H    -1.6693142   -4.6627426    0.3052130 
C    -1.4075970   -0.8390222    3.3000696 
H    -1.4075479   -1.0920131    4.3752440 
H    -0.6264807   -0.0804560    3.1215540 
H    -2.3855191   -0.3800165    3.0703478 
C    -2.3488115   -3.0992562    2.7028466 
H    -2.4329055   -3.2939093    3.7873126 
H    -3.3083808   -2.6722833    2.3628838 
H    -2.2054543   -4.0673408    2.2035291 
