134
Energy =
C    -1.1768028    0.8776684   -3.0174210 
C    -0.0944347    1.7892969   -2.8376986 
C     1.2509178    1.3655486   -2.8166564 
H    -0.3196492    2.8305030   -2.5790751 
Pd   -0.0436206    0.3724641   -1.1528971 
P     1.5633224    0.5444017    0.5616981 
P    -1.8119551   -0.7718818   -0.1531653 
H    -0.9761426   -0.0353894   -3.5938964 
H     1.4776592    0.3814945   -3.2536555 
C    -5.2965114    2.1383983   -3.1027723 
C    -4.3341967    2.9391701   -2.4665482 
C    -3.0017290    2.5221994   -2.3981110 
C    -2.5900888    1.3071887   -2.9956645 
C    -3.5731401    0.5050357   -3.6192528 
C    -4.9116998    0.9125023   -3.6667881 
H    -6.3397588    2.4667880   -3.1532094 
H    -4.6275572    3.8884718   -2.0069740 
H    -2.2768958    3.1451459   -1.8635398 
H    -3.2795293   -0.4456595   -4.0753424 
H    -5.6535386    0.2751373   -4.1594113 
C     4.6936452    3.9109345   -2.3965871 
C     3.4052343    4.4600785   -2.2890693 
C     2.2771130    3.6445728   -2.4073156 
C     2.4095262    2.2566091   -2.6474299 
C     3.7135177    1.7220753   -2.7640094 
C     4.8432925    2.5360450   -2.6311700 
H     5.5749832    4.5544991   -2.3063940 
H     3.2793705    5.5318355   -2.1062611 
H     1.2860333    4.0963918   -2.3114306 
H     3.8393133    0.6545223   -2.9656370 
H     5.8421019    2.0971272   -2.7230193 
Fe    0.7070171   -4.3286940    1.8112287 
C    -0.0954058   -2.6660298    0.9724831 
C     1.1122576   -2.3224977    1.7039093 
C     2.1923556   -3.1113852    1.1632013 
H     3.2271151   -3.0747394    1.5066727 
C     1.6789908   -3.8982487    0.0813433 
H     2.2497155   -4.6113450   -0.5167344 
C     0.2752204   -3.6288477   -0.0388440 
H    -0.4157241   -4.1037946   -0.7387050 
C    -0.8041141   -5.4754865    2.5738399 
H    -1.8718796   -5.3388443    2.3908172 
C    -0.0466965   -4.8832074    3.6391286 
H    -0.4448059   -4.2340707    4.4210621 
C     1.3200768   -5.3057699    3.5038018 
H     2.1512993   -5.0229598    4.1524851 
C     1.4040006   -6.1671039    2.3593987 
H     2.3107282   -6.6392749    1.9768584 
C     0.0924029   -6.2715391    1.7843262 
H    -0.1710647   -6.8361285    0.8879343 
C     1.2312145   -1.2583083    2.7350655 
C     1.3079627    0.1089662    2.3480520 
C     1.3033716    1.1131172    3.3382762 
H     1.3531883    2.1658671    3.0462044 
C     1.2574889    0.7780211    4.6989985 
H     1.2484761    1.5721213    5.4528183 
C     1.2544810   -0.5688854    5.0843613 
H     1.2496478   -0.8407276    6.1449865 
C     1.2428358   -1.5715043    4.1058292 
H     1.2149454   -2.6259232    4.3886028 
C    -2.8598872    0.5188828    0.6206374 
C    -2.2287945    1.2576012    1.6435124 
H    -1.2093221    1.0017128    1.9526417 
C    -2.8787690    2.3311657    2.2762450 
C    -4.1846106    2.6512775    1.8631416 
H    -4.7091944    3.4814285    2.3520309 
C    -4.8349970    1.9421110    0.8343119 
C    -4.1541118    0.8841493    0.2032839 
H    -4.6321078    0.3733815   -0.6368018 
C    -2.7733077   -1.7765179   -1.3537525 
C    -2.0607189   -2.3369541   -2.4336795 
H    -0.9957022   -2.1037144   -2.5515227 
C    -2.6899127   -3.1924703   -3.3530572 
C    -4.0609046   -3.4672652   -3.1749423 
H    -4.5710071   -4.1190056   -3.8947512 
C    -4.7907913   -2.9463083   -2.0919511 
C    -4.1245281   -2.1170059   -1.1671468 
H    -4.6764681   -1.7408814   -0.2997674 
C    -1.4897708   -2.1337544    1.1667049 
H    -2.1786801   -2.9225645    0.8195064 
C    -1.8990540   -1.7680036    2.5999103 
H    -1.7332267   -2.6502460    3.2396502 
H    -1.3165635   -0.9368756    3.0210065 
H    -2.9655256   -1.4935346    2.6405414 
C    -1.9269716   -3.7899598   -4.5147677 
C    -6.2654989   -3.2396543   -1.9268211 
C    -2.1731205    3.1018779    3.3707888 
C    -6.2410526    2.3152218    0.4197613 
C     2.0224549    5.1428322    0.9261760 
C     0.7534310    4.5657178    0.7105404 
C     0.6749226    3.1714027    0.5747087 
C     1.8326697    2.3658381    0.6564547 
C     3.0843293    2.9663676    0.8480712 
C     3.1917768    4.3663413    0.9891924 
H     2.1017091    6.2317432    1.0328166 
H    -0.3021073    2.7012782    0.4041264 
H     3.9917251    2.3554839    0.8718292 
C     5.5571248   -1.6237375   -0.2913194 
C     5.4395556   -0.8815619    0.9042605 
C     4.2318489   -0.2108213    1.1570911 
C     3.1757589   -0.2614892    0.2234501 
C     3.3139597   -1.0218058   -0.9461110 
C     4.5088200   -1.7142237   -1.2216783 
H     6.4918508   -2.1622010   -0.4906471 
H     4.1038166    0.3318194    2.1005821 
H     2.4626276   -1.1067409   -1.6314375 
H    -1.9847897    2.4556917    4.2474172 
H    -1.1900078    3.4674375    3.0232150 
H    -2.7662839    3.9683555    3.7051707 
H    -6.9480942    2.1646568    1.2558918 
H    -6.3026808    3.3797587    0.1308845 
H    -6.5837198    1.7095856   -0.4341241 
H    -0.8542830   -3.5394735   -4.4659372 
H    -2.0226551   -4.8901968   -4.5299627 
H    -2.3201467   -3.4179605   -5.4786324 
H    -6.5718720   -4.1242446   -2.5084665 
H    -6.5252599   -3.4116784   -0.8680931 
H    -6.8706652   -2.3820224   -2.2769263 
C    -0.4883941    5.4244277    0.6084267 
H    -0.5935280    6.0815715    1.4899608 
H    -0.4430635    6.0814372   -0.2799021 
H    -1.3987385    4.8061880    0.5313242 
C     4.5478748    5.0004972    1.2008517 
H     4.4947147    6.1003273    1.1542339 
H     4.9635194    4.7219981    2.1866750 
H     5.2637725    4.6546778    0.4345425 
C     6.5910053   -0.8147865    1.8830389 
H     7.4190808   -0.2078647    1.4721247 
H     6.2829651   -0.3622944    2.8397646 
H     6.9981789   -1.8199128    2.0904532 
C     4.6332116   -2.5415634   -2.4817671 
H     3.8227290   -3.2906191   -2.5408346 
H     4.5545656   -1.9066256   -3.3840247 
H     5.5970084   -3.0736575   -2.5268213 
