94
Energy =
C     0.3783733    1.5012180    2.6990573 
C    -0.8044402    2.1006647    2.1864472 
C    -1.9611979    1.3310211    1.9129365 
H    -0.7686992    3.1453902    1.8569458 
Pd   -0.1630788    0.5490601    0.7369183 
P    -1.4493776   -0.5325949   -0.9038746 
P     1.9146586   -0.3273886    0.1450068 
H     0.2590094    0.5549641    3.2489541 
H    -2.0607489    0.3637289    2.4258984 
C     4.0286590    3.5498812    3.6719091 
C     3.0503219    4.2067859    2.9058355 
C     1.8705898    3.5463569    2.5533213 
C     1.6322537    2.2182444    2.9785684 
C     2.6335665    1.5648359    3.7326316 
C     3.8203856    2.2231524    4.0739524 
H     4.9515820    4.0703742    3.9475782 
H     3.2092693    5.2414767    2.5843227 
H     1.1260713    4.0740055    1.9485820 
H     2.4694669    0.5327320    4.0605759 
H     4.5825769    1.7001849    4.6596383 
C    -5.5930065    2.7327711    0.0812844 
C    -5.4550451    1.3926670    0.4714649 
C    -4.2767294    0.9579605    1.0883350 
C    -3.1996460    1.8479985    1.3075626 
C    -3.3569468    3.1972107    0.9133724 
C    -4.5421436    3.6345746    0.3153720 
H    -6.5162478    3.0762951   -0.3965585 
H    -6.2700503    0.6816109    0.3011447 
H    -4.1856360   -0.0866588    1.4009663 
H    -2.5497683    3.9180295    1.0781141 
H    -4.6469153    4.6851042    0.0251464 
Fe    1.0729012   -1.1446596   -3.0294682 
C    -0.7625371   -1.5051753   -2.2855852 
C     0.0612183   -2.6916750   -2.1892975 
H     0.3185983   -3.2212301   -1.2714656 
C     0.4733727   -3.0442530   -3.5154396 
H     1.1235759   -3.8809457   -3.7770334 
C    -0.0828401   -2.0919847   -4.4323271 
H     0.0709274   -2.0764487   -5.5127909 
C    -0.8465407   -1.1390687   -3.6834221 
C     2.2185291   -0.2581794   -1.6445987 
C     1.6343250    0.7299354   -2.5272052 
H     0.9637746    1.5364294   -2.2222498 
C     2.0712698    0.4385113   -3.8600710 
H     1.7798918    0.9824979   -4.7603134 
C     2.9221439   -0.7160536   -3.8120337 
H     3.3864285   -1.2035153   -4.6713388 
C     3.0229722   -1.1499758   -2.4509305 
H    -1.3816832   -0.2771013   -4.0843137 
H     3.5790960   -2.0101655   -2.0780102 
C    -2.5180407    0.6297747   -1.7724452 
C    -2.3801946    1.9758665   -2.0321637 
C    -3.4913018    2.3467196   -2.8530634 
C    -4.2447714    1.2086798   -3.0410914 
H    -1.5815444    2.6184574   -1.6607351 
H    -3.7231317    3.3385527   -3.2402886 
O    -3.6517289    0.1545178   -2.3956620 
C    -5.5305149    0.9276374   -3.7376657 
H    -5.4190266    0.1037070   -4.4645490 
H    -6.3113150    0.6328099   -3.0126590 
H    -5.8719923    1.8267770   -4.2724010 
C    -2.5715119   -1.6958894   -0.0837974 
C    -3.6561778   -2.4390850   -0.4948817 
C    -4.1428900   -3.1272612    0.6608895 
C    -3.3263754   -2.7751342    1.7138541 
H    -4.0579875   -2.4654565   -1.5071742 
H    -4.9940348   -3.8066528    0.7131078 
O    -2.3644886   -1.9019878    1.2699848 
C    -3.2793169   -3.1455438    3.1562828 
H    -2.3278144   -3.6488143    3.4080492 
H    -3.3683167   -2.2530577    3.8017250 
H    -4.1074186   -3.8304132    3.3928475 
C     3.4887056    0.2360779    0.8306029 
C     4.4874729   -0.3729223    1.5638907 
C     5.5541457    0.5746246    1.6482726 
C     5.1470605    1.7015596    0.9660463 
H     4.4595667   -1.3832128    1.9702694 
H     6.5131914    0.4434162    2.1494673 
C     1.9014650   -2.0689154    0.6110918 
C     0.9649728   -2.8059115    1.3078142 
C     1.4291515   -4.1591291    1.3076397 
C     2.6211352   -4.1725092    0.6141222 
H     0.0397028   -2.4181381    1.7357117 
H     0.9461703   -5.0230764    1.7641638 
O     3.8845804    1.5033205    0.4713788 
O     2.9177930   -2.9031344    0.1910872 
C     5.7899892    3.0063587    0.6512831 
H     5.9645107    3.1082730   -0.4354217 
H     5.1467828    3.8443096    0.9704654 
H     6.7571078    3.0827676    1.1706794 
C     3.5969902   -5.2407247    0.2598626 
H     3.7117618   -5.3236182   -0.8359576 
H     4.5935204   -5.0230870    0.6841386 
H     3.2515881   -6.2091319    0.6517136 
