142
Energy =
C     3.2907292    1.0606551   -1.7568999 
C     3.3558221    1.6699164   -0.4905777 
C     3.5926444    0.8649696    0.6729112 
H     3.1488021    2.7423408   -0.3912774 
Pd    1.6224819    0.3184014   -0.1936548 
P     1.0784167   -1.3528855    1.3456330 
P    -0.3138277    0.4282179   -1.5405722 
H     3.6278716    0.0141985   -1.8145244 
H     4.1944120   -0.0410602    0.5246318 
C     2.8015715    2.8553846   -5.6155219 
C     3.0443402    1.4784555   -5.4896620 
C     3.2007838    0.9127427   -4.2207018 
C     3.1107805    1.7098117   -3.0519828 
C     2.8872795    3.0997170   -3.1998361 
C     2.7307709    3.6635091   -4.4681104 
H     2.6744876    3.3024821   -6.6067123 
H     3.1195052    0.8485794   -6.3819896 
H     3.4018532   -0.1599167   -4.1209500 
H     2.8372376    3.7445028   -2.3188917 
H     2.5414271    4.7367997   -4.5663213 
C     3.5135063    2.2604019    4.7415798 
C     2.9319056    3.0414667    3.7287836 
C     2.9575325    2.6080814    2.3999105 
C     3.5850261    1.3874933    2.0495156 
C     4.1946000    0.6301268    3.0769285 
C     4.1494272    1.0544131    4.4100410 
H     3.4694037    2.5936600    5.7829797 
H     2.4337683    3.9815582    3.9824344 
H     2.4656553    3.2146662    1.6313033 
H     4.7125346   -0.2994154    2.8199544 
H     4.6137082    0.4396679    5.1870362 
Fe   -2.7293409   -3.9397142   -0.0560002 
C    -1.3441298   -2.5030293    0.3200866 
C    -1.9199882   -2.3113452   -1.0080832 
C    -3.3458150   -2.1708712   -0.8434989 
H    -4.0508948   -2.0155273   -1.6605893 
C    -3.6581101   -2.2358026    0.5492623 
H    -4.6542380   -2.1634622    0.9882614 
C    -2.4377361   -2.4494212    1.2669184 
H    -2.3662755   -2.5852776    2.3460540 
C    -1.9682353   -5.7462062    0.5315796 
H    -1.0324961   -5.9144034    1.0691661 
C    -2.1275087   -5.7165515   -0.8946939 
H    -1.3363306   -5.8785284   -1.6293513 
C    -3.5118015   -5.4614447   -1.1822701 
H    -3.9616459   -5.3741340   -2.1731035 
C    -4.2071950   -5.3415730    0.0674763 
H    -5.2703913   -5.1283208    0.1919231 
C    -3.2539672   -5.5175541    1.1265231 
H    -3.4662676   -5.4607919    2.1959792 
C    -1.2267341   -2.1711893   -2.3202268 
C    -0.4683500   -1.0165431   -2.6643132 
C     0.2789336   -1.0092873   -3.8625594 
H     0.9166694   -0.1518131   -4.0936322 
C     0.2119373   -2.0772361   -4.7646223 
H     0.7962911   -2.0458743   -5.6901378 
C    -0.6180106   -3.1702355   -4.4798456 
H    -0.7046561   -4.0008246   -5.1878698 
C    -1.3156890   -3.2110585   -3.2671727 
H    -1.9341797   -4.0746091   -3.0125477 
C    -0.2558049    1.9686662   -2.5530533 
C    -0.5614454    2.0888126   -3.9171613 
H    -0.7822081    1.2019503   -4.5186506 
C    -0.5840833    3.3473403   -4.5480984 
C    -0.3261047    4.4941236   -3.7662135 
C    -0.0295545    4.4056412   -2.3860472 
C     0.0079011    3.1339098   -1.8010138 
H     0.2411032    3.0451120   -0.7309441 
C    -1.9598727    0.6979573   -0.7698863 
C    -3.0691556    0.9430829   -1.6061449 
H    -2.9476902    0.9380208   -2.6954330 
C    -4.3368925    1.1828202   -1.0631749 
C    -4.4751443    1.1822109    0.3479906 
C    -3.3832125    0.9337614    1.2055858 
C    -2.1240777    0.7088193    0.6189093 
H    -1.2704540    0.4948915    1.2643663 
C     2.6253811   -2.1706986    1.9451489 
C     3.6131657   -2.4535253    0.9853045 
H     3.4313703   -2.2248273   -0.0699466 
C     4.8499760   -2.9894365    1.3643514 
C     5.1248563   -3.2589753    2.7114131 
H     6.0942717   -3.6667419    3.0085846 
C     4.1408541   -2.9798929    3.6714408 
C     2.9006195   -2.4399880    3.2985035 
H     2.1709576   -2.2127170    4.0792363 
C     0.2602408   -0.8488248    2.9139965 
C     0.2322033    0.5187468    3.2493701 
H     0.6995268    1.2529109    2.5868335 
C    -0.4153056    0.9455273    4.4147502 
C    -1.0393169    0.0184142    5.2646854 
H    -1.5717271    0.3527484    6.1588239 
C    -0.9986470   -1.3414478    4.9380524 
C    -0.3444687   -1.7778900    3.7756894 
H    -0.3229196   -2.8493936    3.5554120 
C     0.0832742   -2.8394740    0.6869478 
H     0.0444156   -3.5321388    1.5470080 
C     0.8788104   -3.5185343   -0.4441059 
H     0.2242923   -4.2603992   -0.9269445 
H     1.1941622   -2.7980436   -1.2183200 
H     1.7685493   -4.0385519   -0.0563508 
C    -0.4928870    2.4200478    4.7506414 
F    -1.7251953    2.7452663    5.2143360 
F     0.3965172    2.7696646    5.7081532 
F    -0.2510712    3.1943951    3.6649498 
C    -1.7313640   -2.3713951    5.7696643 
F    -2.8241816   -2.8258433    5.0928297 
F    -0.9492241   -3.4471454    6.0175796 
F    -2.1564194   -1.8760728    6.9460685 
C     5.8774339   -3.2202302    0.2786319 
F     6.0945041   -2.0647245   -0.4135663 
F     5.4432003   -4.1343551   -0.6210530 
F     7.0593872   -3.6380243    0.7650562 
C     4.4614918   -3.1621493    5.1403567 
F     5.0997544   -2.0638380    5.6294533 
F     3.3429335   -3.3354511    5.8796047 
F     5.2723479   -4.2191381    5.3480291 
C    -0.8332519    3.4668434   -6.0329179 
H    -1.9051148    3.6294935   -6.2528482 
H    -0.2756247    4.3222346   -6.4484957 
H    -0.5231726    2.5487152   -6.5581879 
C     0.3026367    5.6543062   -1.6054294 
H     1.1229538    6.2109004   -2.0923728 
H    -0.5594687    6.3432413   -1.5581986 
H     0.5993411    5.4103422   -0.5721950 
C    -5.5510680    1.4061435   -1.9326637 
H    -5.9635706    2.4216004   -1.7922718 
H    -5.3046193    1.2815335   -2.9994114 
H    -6.3561832    0.6999015   -1.6652653 
C    -3.5734699    0.8296994    2.7003502 
H    -3.2752101    1.7562225    3.2239818 
H    -4.6287360    0.6258636    2.9413217 
H    -2.9587042    0.0096416    3.1078672 
O    -0.2354260    5.7332215   -4.3649502 
O    -5.7418680    1.3436176    0.8671069 
C    -1.4716493    6.4299094   -4.5807032 
H    -1.2060905    7.3987382   -5.0291157 
H    -2.1353781    5.8760445   -5.2705248 
H    -2.0051573    6.5981290   -3.6260808 
C    -6.0514406    2.6526211    1.3664778 
H    -5.9673496    3.4130876    0.5668196 
H    -7.0907072    2.6098067    1.7250157 
H    -5.3850468    2.9368557    2.2028725 
