90
Energy =
C     2.8774113    0.9323014   -0.1290265 
C     2.7676140    0.2521058    1.1080701 
C     2.5862400   -1.1528972    1.1502926 
H     2.7397123    0.8276488    2.0410863 
Pd    0.8211767   -0.0890342    0.0969251 
P    -0.8332780   -1.7473777    0.4982586 
P    -0.3755493    1.4594022   -1.2487112 
H     3.1403922    0.3168017   -1.0010468 
H     2.8930642   -1.7086464    0.2531743 
C     3.6260083    5.1314888   -0.7186034 
C     3.7121026    4.2279877   -1.7894400 
C     3.4851846    2.8641542   -1.5741621 
C     3.1530567    2.3698722   -0.2896651 
C     3.1082057    3.2896068    0.7843108 
C     3.3373028    4.6525442    0.5701194 
H     3.8001636    6.1996732   -0.8825244 
H     3.9631567    4.5863084   -2.7930574 
H     3.5654269    2.1654510   -2.4137392 
H     2.8813720    2.9437863    1.7972164 
H     3.2925736    5.3478829    1.4146877 
C     2.5364675   -3.6015385    4.6945495 
C     2.7518426   -4.1692271    3.4296484 
C     2.7648666   -3.3571756    2.2892791 
C     2.5529508   -1.9608575    2.3824514 
C     2.3634441   -1.4025051    3.6687831 
C     2.3535574   -2.2133071    4.8086780 
H     2.5274641   -4.2332264    5.5885191 
H     2.9199983   -5.2466952    3.3318782 
H     2.9552660   -3.8048220    1.3072483 
H     2.2248538   -0.3226107    3.7840497 
H     2.2055855   -1.7597725    5.7941652 
Fe   -3.2708538   -0.2910299   -1.3416903 
C    -2.2028300   -1.8574844   -0.6938704 
C    -2.0599230   -1.7113117   -2.1264343 
H    -1.1207901   -1.5413437   -2.6549136 
C    -3.3604114   -1.8070598   -2.7214379 
H    -3.5856552   -1.7050350   -3.7843891 
C    -4.3147302   -2.0266255   -1.6751499 
H    -5.3949219   -2.1198159   -1.8008202 
C    -3.6127636   -2.0655455   -0.4260283 
C    -2.1938471    1.3930478   -1.2111419 
C    -2.9852227    1.2109184   -0.0136951 
H    -2.5897078    1.1142144    0.9980142 
C    -4.3673337    1.1591241   -0.3890859 
H    -5.2073716    0.9969633    0.2884203 
C    -4.4498352    1.3234691   -1.8100250 
H    -5.3638417    1.3082007   -2.4063420 
C    -3.1205962    1.4756343   -2.3236681 
C    -0.0662697    3.2415408   -0.7039452 
C     0.0043822    1.1881880   -3.0879172 
H    -4.0718834   -2.2103366    0.5530896 
H    -2.8626820    1.6139129   -3.3746435 
C    -0.1261380   -3.4941462    0.4167858 
C    -1.7222485   -1.4269865    2.1418808 
H     0.9733581    3.4564662   -1.0047415 
H    -0.8963274    0.6363711   -3.4125789 
H     0.5083882   -3.5720427    1.3182678 
H    -2.6532185   -0.9425714    1.7958949 
C    -1.1673783   -4.6278670    0.4089590 
H    -0.6405305   -5.5947133    0.3164989 
H    -1.7716674   -4.6681681    1.3253834 
H    -1.8491784   -4.5340113   -0.4541173 
C     0.7628018   -3.6037552   -0.8391165 
H     1.3166052   -4.5591990   -0.8218054 
H     0.1486186   -3.5941227   -1.7568517 
H     1.4947122   -2.7820932   -0.9114910 
C    -0.9424870   -0.4078474    2.9903344 
H    -1.5572011   -0.0935060    3.8526729 
H    -0.0135579   -0.8526278    3.3809762 
H    -0.6727734    0.4920210    2.4085957 
C    -2.0914599   -2.6658917    2.9735764 
H    -2.5816398   -2.3364104    3.9071463 
H    -2.7939328   -3.3321716    2.4484146 
H    -1.1973776   -3.2478599    3.2575588 
C    -1.0122081    4.2879887   -1.3178681 
H    -0.7620828    5.2800576   -0.9010799 
H    -0.9259957    4.3585897   -2.4114436 
H    -2.0647661    4.0722152   -1.0651184 
C    -0.1582432    3.2816100    0.8347189 
H     0.1809311    4.2664297    1.1990966 
H    -1.1992833    3.1361344    1.1733978 
H     0.4700978    2.5060410    1.3057501 
C     0.1408130    2.4601524   -3.9405315 
H     0.3823220    2.1753621   -4.9802437 
H    -0.7902513    3.0481561   -3.9654345 
H     0.9548282    3.1094139   -3.5738768 
C     1.2074969    0.2495113   -3.2897806 
H     1.2517945   -0.0729281   -4.3451180 
H     2.1572386    0.7574890   -3.0584587 
H     1.1393954   -0.6520382   -2.6539947 
