132
Energy =
C     2.2609518   -2.3035588   -0.0942906 
C     1.9693837   -2.5931414    1.2680257 
C     0.7322571   -3.1757603    1.6456136 
H     2.6507447   -2.2178697    2.0423999 
Pd    0.4092668   -1.2052291    0.5811821 
P    -1.5186771   -0.4156276    1.6497941 
P     0.3547523    0.3000959   -1.1937459 
H     1.7871213   -2.9330192   -0.8625074 
H     0.1855965   -3.7265346    0.8646904 
C     5.8102393   -0.2385880   -1.3942828 
C     5.1862890    0.1331192   -0.1917694 
C     4.0409825   -0.5403857    0.2422280 
C     3.4826872   -1.5912561   -0.5211322 
C     4.1207733   -1.9542505   -1.7276272 
C     5.2783643   -1.2903321   -2.1546312 
H     6.7069275    0.2893565   -1.7346960 
H     5.5882153    0.9597574    0.4033916 
H     3.5488906   -0.2268667    1.1688835 
H     3.7026125   -2.7669640   -2.3309163 
H     5.7643093   -1.5923421   -3.0880586 
C    -0.6348491   -4.0848559    5.6257204 
C    -1.3964524   -4.4419167    4.5018895 
C    -0.9254122   -4.1549782    3.2155010 
C     0.3092115   -3.4907034    3.0200373 
C     1.0680836   -3.1447406    4.1628596 
C     0.6018894   -3.4429555    5.4480376 
H    -0.9970407   -4.3133168    6.6330656 
H    -2.3557101   -4.9544774    4.6286846 
H    -1.5174543   -4.4478327    2.3405728 
H     2.0309721   -2.6367307    4.0502423 
H     1.2071339   -3.1716174    6.3192040 
Fe   -2.0523848    2.8840256   -1.6906987 
C    -1.3108624    1.0061928   -1.4414698 
C    -2.2231790    1.3583499   -0.3629425 
C    -3.4995519    1.6569746   -0.9621258 
C    -3.3837468    1.5075622   -2.3841661 
C    -2.0385814    1.1189279   -2.6873435 
C    -1.8964755    4.6566204   -0.6664274 
C    -0.6435270    4.3132967   -1.2709039 
C    -0.8526998    4.2008542   -2.6886898 
C    -2.2362075    4.4738016   -2.9556406 
C    -2.8832580    4.7507250   -1.7046949 
C     0.6787489   -0.6253462   -2.7375895 
C     1.8946506   -0.5498736   -3.4409120 
C     2.1306326   -1.3630493   -4.5643287 
C     1.1315169   -2.2810830   -4.9546057 
C    -0.0995820   -2.3848617   -4.2616701 
C    -0.3029592   -1.5520114   -3.1522156 
C     1.5355306    1.6817715   -1.0487939 
C     1.9694236    2.4364744   -2.1530878 
C     2.8281110    3.5357250   -1.9877060 
C     3.2296807    3.8773357   -0.6733643 
C     2.8151252    3.1302409    0.4542242 
C     1.9671138    2.0329616    0.2437711 
C    -1.8857248    1.3612979    1.1078668 
H    -4.3939738    1.9878059   -0.4321647 
H    -4.1728999    1.7006990   -3.1131392 
H    -1.6261096    0.9306630   -3.6793960 
H    -2.0686140    4.8168093    0.3992259 
H     0.2989406    4.1534407   -0.7452815 
H    -0.0975206    3.9460941   -3.4327467 
H    -2.7184541    4.4476060   -3.9345893 
H    -3.9430174    4.9726173   -1.5658390 
H     2.6810683    0.1365962   -3.1169525 
H    -1.2525436   -1.6188378   -2.6099447 
H     1.6340318    2.1752300   -3.1619932 
H     1.6420467    1.4291993    1.1001724 
H    -0.8909018    1.8326515    1.2183830 
H    -0.8112812   -1.4139868    3.6557726 
H    -2.8040337   -2.3591226    2.0104074 
C    -3.9373000   -3.1925227   -0.3895554 
C    -2.8650406   -2.1183957   -0.1409041 
C    -2.9752875   -1.5328649    1.2889769 
C    -4.3928033   -0.9648382    1.5232868 
C    -5.4591229   -2.0513255    1.2845569 
C    -5.3503748   -2.6467472   -0.1282903 
H    -3.7465943   -4.0553444    0.2796661 
H    -3.8510320   -3.5700851   -1.4248724 
H    -2.9838687   -1.2973092   -0.8736865 
H    -1.8527487   -2.5386299   -0.2955710 
H    -4.4937514   -0.5527019    2.5404780 
H    -4.5628630   -0.1350203    0.8138045 
H    -5.3317098   -2.8554328    2.0362376 
H    -6.4644280   -1.6232086    1.4477866 
H    -5.5779916   -1.8585733   -0.8730607 
H    -6.1026338   -3.4431709   -0.2691204 
C    -2.0201074   -0.3878112    5.9056691 
C    -2.4611248   -0.2922611    4.4315289 
C    -1.2372464   -0.4053651    3.4966872 
C    -0.1249865    0.6121584    3.8460588 
C     0.2760598    0.5125481    5.3285521 
C    -0.9467503    0.6575389    6.2488030 
H    -1.6163758   -1.4014983    6.0912488 
H    -2.9015409   -0.2680113    6.5608856 
H    -2.9912869    0.6627064    4.2704444 
H    -3.1766258   -1.1031259    4.2101216 
H     0.7538116    0.4313046    3.1959910 
H    -0.4721665    1.6422321    3.6354127 
H     0.7504320   -0.4710986    5.5059438 
H     1.0340796    1.2824878    5.5609939 
H    -1.3730302    1.6745403    6.1363362 
H    -0.6419430    0.5596016    7.3060311 
C    -2.8910553    2.1561180    1.9580764 
H    -3.0324438    3.1491950    1.4996542 
H    -3.8750007    1.6685696    2.0168767 
H    -2.5188232    2.3046809    2.9830124 
C     3.4162430   -1.2664446   -5.3506956 
H     3.9955461   -0.3772573   -5.0560509 
H     4.0552140   -2.1536988   -5.1836013 
H     3.2075537   -1.2245683   -6.4329655 
C    -1.1631543   -3.3518739   -4.7273876 
H    -1.1793917   -3.4076613   -5.8284381 
H    -0.9707623   -4.3744450   -4.3513079 
H    -2.1596570   -3.0485299   -4.3662950 
O     1.3381692   -3.0368893   -6.0881453 
C     1.8759929   -4.3492984   -5.8799768 
H     2.0054235   -4.7935809   -6.8780650 
H     2.8563050   -4.3049105   -5.3676937 
H     1.1890503   -4.9802892   -5.2845604 
C     3.3131846    4.3330406   -3.1751952 
H     3.3518100    3.7063314   -4.0813129 
H     2.6365904    5.1821350   -3.3889767 
H     4.3162560    4.7464991   -2.9816806 
C     3.3194507    3.4963035    1.8295786 
H     2.9666855    2.7752562    2.5852711 
H     4.4231315    3.5185407    1.8443315 
H     2.9801045    4.5032244    2.1312825 
O     4.1100626    4.9151692   -0.4692298 
C     3.5328758    6.2287896   -0.4214735 
H     4.3612226    6.9231271   -0.2173115 
H     3.0550785    6.4990223   -1.3815343 
H     2.7800987    6.3028132    0.3866078 
