112
Energy =
C     2.0309424   -0.3448493   -2.5878051 
C     2.4725494    0.9662745   -2.2583584 
C     3.1459631    1.2299910   -1.0392894 
H     2.1737320    1.8074346   -2.8952326 
Pd    1.0852963    0.3783257   -0.6469904 
P     0.7733512    1.5229298    1.3575202 
P    -0.6561588   -1.1717920   -0.3357478 
H     2.5797856   -1.1816839   -2.1313905 
H     3.6355860    0.3753473   -0.5480102 
C    -0.1366869   -1.4534345   -6.1440459 
C     0.5457175   -2.4180833   -5.3882873 
C     1.2613822   -2.0376317   -4.2459125 
C     1.2989546   -0.6893601   -3.8209310 
C     0.6194884    0.2728016   -4.6052347 
C    -0.0851676   -0.1046435   -5.7524769 
H    -0.6958873   -1.7464457   -7.0383304 
H     0.5296914   -3.4694648   -5.6940908 
H     1.8123514   -2.7940485   -3.6761201 
H     0.6215851    1.3258280   -4.3044021 
H    -0.6063069    0.6564050   -6.3426023 
C     4.7898455    5.0002024    0.2090062 
C     5.1181121    3.8147349    0.8828226 
C     4.5492447    2.5997022    0.4816201 
C     3.6456993    2.5447614   -0.6050703 
C     3.2980914    3.7536216   -1.2518856 
C     3.8706213    4.9644029   -0.8531331 
H     5.2415485    5.9501378    0.5128121 
H     5.8269774    3.8335223    1.7171588 
H     4.8148189    1.6742068    1.0048424 
H     2.5773697    3.7506619   -2.0753884 
H     3.5954567    5.8888006   -1.3706328 
Fe   -2.6239740   -1.4674183    2.6995986 
C    -1.0140186   -1.3569048    1.4477365 
C    -1.0234979   -0.2544216    2.4073633 
C    -0.9879223   -0.8231115    3.7287661 
C    -0.9803045   -2.2487236    3.6132229 
C    -1.0072720   -2.5840628    2.2222893 
C    -4.1056016   -2.2569397    3.8471451 
C    -4.1771477   -0.8217463    3.8470448 
C    -4.3523299   -0.3868532    2.4901782 
C    -4.3910050   -1.5549668    1.6549421 
C    -4.2345002   -2.7095503    2.4903992 
C    -0.9502387    1.2119019    2.0820121 
H    -1.0013558   -0.2637824    4.6646738 
H    -0.9931154   -2.9597618    4.4410430 
H    -1.0250865   -3.5970987    1.8229246 
H    -3.9577835   -2.8903990    4.7236368 
H    -4.0998799   -0.1772575    4.7246965 
H    -4.4523274    0.6476984    2.1559573 
H    -4.5253607   -1.5657067    0.5730386 
H    -4.2106246   -3.7475968    2.1540616 
H    -1.6019977    1.4290044    1.2204948 
C    -1.3413430    2.1344403    3.2420011 
H    -2.3765473    1.9043073    3.5493964 
H    -0.6911290    1.9902460    4.1195639 
H    -1.2903065    3.1930909    2.9402912 
H     0.1771216   -2.5943226   -2.0017637 
C    -0.5702329   -5.2236958   -1.6647886 
C    -1.1581520   -3.9560502   -1.0150496 
C    -0.0904625   -2.8405660   -0.9556912 
C     1.2069571   -3.3027407   -0.2521563 
C     1.7603921   -4.5869778   -0.8956293 
C     0.6980060   -5.6975067   -0.9368388 
H    -0.3258853   -5.0037517   -2.7230578 
H    -1.3335431   -6.0221218   -1.6759379 
H    -1.5242781   -4.1980111   -0.0011148 
H    -2.0360951   -3.6164608   -1.5916032 
H     1.9597273   -2.4923050   -0.2953384 
H     1.0128924   -3.4847892    0.8202309 
H     2.0941717   -4.3649568   -1.9284601 
H     2.6548412   -4.9244337   -0.3419569 
H     0.4368242   -5.9914709    0.0993512 
H     1.1066479   -6.5992864   -1.4262694 
H    -2.9331877   -1.6732075   -0.9328569 
C    -3.3614159   -0.6032483   -3.5174483 
C    -2.0481792   -0.8752098   -2.7641484 
C    -2.2594922   -0.8492706   -1.2379891 
C    -2.8892735    0.4885304   -0.8061900 
C    -4.2035151    0.7622420   -1.5580238 
C    -3.9961892    0.7262786   -3.0806833 
H    -4.0713700   -1.4321594   -3.3265583 
H    -3.1614403   -0.6016274   -4.6039497 
H    -1.3098355   -0.0960263   -3.0244513 
H    -1.6158806   -1.8336934   -3.0989235 
H    -3.0619377    0.4769955    0.2830641 
H    -2.1669492    1.3024298   -1.0216360 
H    -4.9517301   -0.0029240   -1.2715145 
H    -4.6161232    1.7373450   -1.2416030 
H    -3.3297599    1.5611598   -3.3762729 
H    -4.9559529    0.8869760   -3.6030435 
C     3.6275334    0.0150657    4.6986067 
C     2.9092697    1.2022895    4.9088891 
C     2.0595786    1.7012422    3.9119769 
C     1.9297802    1.0176545    2.6825774 
C     2.6487575   -0.1804850    2.4858806 
C     3.4921972   -0.6791139    3.4873060 
H     4.2898932   -0.3698548    5.4808946 
H     3.0086464    1.7436617    5.8554370 
H     1.5027892    2.6243477    4.0965350 
H     2.5309385   -0.7265702    1.5423495 
H     4.0428712   -1.6108024    3.3216122 
C     0.7191597    6.1092548    0.6328542 
C    -0.1586460    5.2444255   -0.0406272 
C    -0.1049633    3.8667570    0.2001460 
C     0.8215825    3.3374543    1.1283361 
C     1.7156042    4.2072900    1.7795765 
C     1.6576781    5.5865241    1.5324380 
H     0.6780680    7.1872214    0.4458999 
H    -0.8843074    5.6438144   -0.7567771 
H    -0.7827889    3.1945076   -0.3401414 
H     2.4771265    3.8153067    2.4575594 
H     2.3632463    6.2518233    2.0400815 
