124
Energy =
C     1.3382228   -3.2021078    0.1613789 
C     2.2440572   -2.5471996   -0.7247850 
C     3.1245873   -1.5414209   -0.2625261 
H     2.1460759   -2.7182665   -1.8046449 
Pd    0.9221172   -1.0133562    0.1358366 
P     0.8913009    1.3259082   -0.1181413 
P    -1.2584108   -1.0287747    0.9664027 
H     1.6548609   -3.3171172    1.2077339 
H     3.3137025   -1.4935500    0.8210183 
C    -1.7028206   -5.9911123   -1.0667184 
C    -1.3439411   -4.9329375   -1.9188511 
C    -0.3519025   -4.0261380   -1.5339140 
C     0.3025209   -4.1543110   -0.2865896 
C    -0.0712276   -5.2201050    0.5607413 
C    -1.0613098   -6.1310674    0.1721413 
H    -2.4820840   -6.6990756   -1.3673433 
H    -1.8456802   -4.8110045   -2.8846459 
H    -0.0972483   -3.1932015   -2.1984166 
H     0.4222942   -5.3317649    1.5319399 
H    -1.3367973   -6.9494715    0.8449604 
C     5.9851280    0.6412003   -2.6268393 
C     5.7564561    0.9783505   -1.2835772 
C     4.8381510    0.2484668   -0.5207365 
C     4.1011128   -0.8158434   -1.0927794 
C     4.3513330   -1.1521224   -2.4450440 
C     5.2892793   -0.4374379   -3.1974122 
H     6.7134742    1.2023207   -3.2213768 
H     6.3008626    1.8086373   -0.8219625 
H     4.6759566    0.5119378    0.5286306 
H     3.8234223   -1.9903969   -2.9102566 
H     5.4798004   -0.7229086   -4.2369751 
Fe   -2.5576929    1.6481128    3.1308031 
C    -1.3424401    0.2564277    2.2579419 
C    -0.8396045    1.6048964    2.0402755 
C    -0.6024772    2.1972904    3.3288315 
C    -0.9696440    1.2467572    4.3374527 
C    -1.4397681    0.0581441    3.6897384 
C    -4.1744790    2.2952224    2.0540116 
C    -4.5534133    1.2316690    2.9474384 
C    -4.2476405    1.6428841    4.2853360 
C    -3.6806331    2.9592401    4.2243503 
C    -3.6410996    3.3633934    2.8479670 
C    -0.5891064    2.2021149    0.6837058 
H    -0.2480175    3.2129345    3.5096273 
H    -0.9464842    1.4179234    5.4153414 
H    -1.8041484   -0.8427172    4.1833363 
H    -4.2731293    2.2937251    0.9672961 
H    -4.9963022    0.2726840    2.6720021 
H    -4.3946892    1.0474410    5.1881753 
H    -3.3177722    3.5412835    5.0735721 
H    -3.2622830    4.3163239    2.4745145 
H    -1.4386392    1.9098158    0.0407659 
C    -0.4358434    3.7286100    0.6969481 
H    -1.3222013    4.1790682    1.1742730 
H     0.4573385    4.0335680    1.2674726 
H    -0.3470868    4.1340162   -0.3235967 
C     4.4812074    2.9654736    2.3752994 
C     3.6564095    1.9003366    2.7840865 
C     2.6107667    1.4690024    1.9645038 
C     2.3347278    2.0892333    0.7232125 
C     3.1260304    3.1947208    0.3087461 
C     4.1875351    3.5881130    1.1480900 
H     3.8388601    1.4004569    3.7415810 
H     1.9913041    0.6212541    2.2844826 
H     4.8097178    4.4324926    0.8264564 
C     0.5625127    2.2141010   -4.6507634 
C    -0.5321056    2.5224222   -3.8242399 
C    -0.4131069    2.2824274   -2.4437081 
C     0.7743864    1.7562714   -1.8972795 
C     1.8495449    1.4382305   -2.7526584 
C     1.7571256    1.6729594   -4.1370058 
H     0.4838919    2.3990499   -5.7288828 
H    -1.2741878    2.5052062   -1.8079421 
H     2.7708002    1.0183327   -2.3371058 
C     5.6491784    3.4301584    3.2142324 
H     6.6073356    3.1775006    2.7233694 
H     5.6327539    4.5261798    3.3471111 
H     5.6458681    2.9596574    4.2106581 
C     2.9179314    3.9585901   -0.9799404 
H     3.3590848    4.9655273   -0.9021629 
H     3.4078279    3.4418552   -1.8253155 
H     1.8544780    4.0636364   -1.2418820 
C    -1.8030736    3.1196175   -4.3850147 
H    -2.6935327    2.7054172   -3.8819011 
H    -1.8155509    4.2163868   -4.2402442 
H    -1.8983308    2.9232128   -5.4651064 
C     2.9129096    1.3420583   -5.0547816 
H     3.0310119    0.2479557   -5.1582089 
H     2.7609052    1.7642249   -6.0613802 
H     3.8640266    1.7284884   -4.6514468 
C    -2.9225940   -4.9402253    2.8986058 
C    -3.5722072   -4.3499463    1.8304271 
C    -3.0576817   -3.1642998    1.2484898 
C    -1.9045842   -2.5602355    1.7444842 
H    -3.3181377   -5.8546144    3.3538463 
H    -4.4853715   -4.7931891    1.4213478 
H    -3.5823670   -2.7274771    0.3943815 
C    -1.1749571   -3.1834809    2.8213285 
C    -1.7094764   -4.3907740    3.4061472 
C    -0.9924960   -5.0322313    4.4595058 
C     0.2126302   -4.5258406    4.9167278 
C     0.7448349   -3.3432455    4.3399321 
C     0.0644851   -2.6873280    3.3256850 
H    -1.4111305   -5.9453223    4.8966127 
H     0.7557688   -5.0332013    5.7203720 
H     1.6983814   -2.9439331    4.7011847 
H     0.4920443   -1.7751457    2.8952010 
C    -1.8971206   -0.6526099   -1.7030863 
C    -2.3946854   -0.6025714   -0.4043207 
C    -3.7557708   -0.2333544   -0.1843185 
C    -4.5760258    0.0816482   -1.2530367 
H    -0.8467008   -0.9203441   -1.8719641 
H    -4.1362775   -0.2048715    0.8378825 
H    -5.6196260    0.3655869   -1.0770534 
C    -4.0905287    0.0357033   -2.5960979 
C    -2.7196040   -0.3480351   -2.8234187 
C    -2.2220658   -0.4055408   -4.1579844 
C    -3.0474686   -0.1032947   -5.2283984 
C    -4.3992702    0.2767728   -5.0068226 
C    -4.9099737    0.3483870   -3.7195758 
H    -1.1744029   -0.6805936   -4.3201093 
H    -2.6597090   -0.1495875   -6.2512107 
H    -5.0398494    0.5150212   -5.8622186 
H    -5.9523427    0.6406645   -3.5522329 
