142
Energy =
C     2.6960749    2.0194372   -0.2481553 
C     3.2144844    0.7084859   -0.0683266 
C     2.8993726   -0.3276107   -0.9801292 
H     3.7699024    0.4699651    0.8463999 
Pd    1.0150799    0.5089520    0.0519291 
P    -0.0855239   -1.5686034    0.1792826 
P    -0.6035142    2.1231194    0.5263809 
H     2.4163838    2.3048405   -1.2727016 
H     2.5271836   -0.0168216   -1.9678353 
C     3.3113468    5.3764394    2.3723968 
C     3.5664724    4.0761666    2.8396746 
C     3.3791072    2.9750207    1.9990237 
C     2.9363547    3.1483694    0.6665755 
C     2.7146221    4.4659814    0.2029569 
C     2.8911719    5.5686070    1.0477961 
H     3.4488119    6.2358566    3.0364985 
H     3.8984891    3.9197057    3.8706220 
H     3.5575347    1.9704944    2.3952951 
H     2.4122487    4.6244689   -0.8370548 
H     2.7030308    6.5763390    0.6655970 
C     4.4731361   -4.3252552   -0.9708558 
C     3.6573409   -3.8786932   -2.0205657 
C     3.1431543   -2.5779113   -2.0017567 
C     3.4191616   -1.7011319   -0.9266259 
C     4.2275041   -2.1730412    0.1338252 
C     4.7541387   -3.4664709    0.1048079 
H     4.8944921   -5.3356768   -0.9921902 
H     3.4318364   -4.5400093   -2.8634848 
H     2.5196840   -2.2301960   -2.8308982 
H     4.4560356   -1.5253097    0.9848382 
H     5.3918128   -3.8076547    0.9252743 
Fe   -4.5484330    0.4426500   -1.5641522 
C    -2.7320378    0.8469119   -0.7567466 
C    -2.9755599   -0.5888851   -0.7350161 
C    -3.2261516   -1.0070567   -2.0926345 
H    -3.4410998   -2.0315624   -2.3988174 
C    -3.0992704    0.1294059   -2.9534273 
H    -3.2375316    0.1346435   -4.0358357 
C    -2.8102438    1.2729682   -2.1387785 
H    -2.7182770    2.2991907   -2.4970901 
C    -5.8828057    1.8391866   -0.8938664 
H    -5.6417806    2.7525143   -0.3458328 
C    -6.1737120    0.5593428   -0.3132411 
H    -6.2123079    0.3374078    0.7548203 
C    -6.4240384   -0.3674815   -1.3823212 
H    -6.6714106   -1.4256722   -1.2783590 
C    -6.2927702    0.3423610   -2.6219405 
H    -6.4022300   -0.0847184   -3.6203878 
C    -5.9597258    1.7058081   -2.3206641 
H    -5.7708525    2.4950959   -3.0508765 
C    -2.9287886   -1.4963349    0.4451620 
C    -1.6980180   -1.9044225    1.0333033 
C    -1.7169323   -2.6858632    2.2079884 
H    -0.7765887   -2.9957168    2.6709597 
C    -2.9268218   -3.1017399    2.7798949 
H    -2.9149632   -3.7054635    3.6930413 
C    -4.1367799   -2.7687243    2.1600017 
H    -5.0883208   -3.1148542    2.5765168 
C    -4.1270222   -1.9738438    1.0071762 
H    -5.0624869   -1.6859353    0.5245449 
C     1.0730826   -2.6177952    1.1466158 
C     1.3311054   -3.9670838    0.8600184 
H     0.9193074   -4.4270149   -0.0427466 
C     2.1123543   -4.7557639    1.7238248 
C     2.6458038   -4.1515156    2.8850801 
C     2.4199045   -2.7879004    3.1904125 
C     1.6325429   -2.0370880    2.3052375 
H     1.4303974   -0.9830197    2.5371965 
C    -0.3684665   -2.3346295   -1.4589252 
C    -0.9902046   -3.5948211   -1.5743480 
H    -1.3016016   -4.1381020   -0.6750309 
C    -1.2558472   -4.1544611   -2.8329182 
C    -0.9040610   -3.4106537   -3.9865568 
C    -0.3312857   -2.1208354   -3.9016853 
C    -0.0691701   -1.6051167   -2.6214891 
H     0.3422874   -0.5931938   -2.5297033 
C    -0.4159012    2.9686581    2.1414778 
C    -1.1463061    4.1109282    2.5137904 
H    -1.8841145    4.5563389    1.8391608 
C    -0.9489753    4.6900367    3.7763419 
C    -0.0573560    4.1190832    4.6931735 
H     0.0914297    4.5801614    5.6729893 
C     0.6336815    2.9507121    4.3388716 
C     0.4629475    2.3846818    3.0709992 
H     1.0196104    1.4853437    2.7924475 
C    -0.3758756    3.3906249   -0.7939303 
C    -0.1528950    2.8621025   -2.0775971 
H    -0.1332015    1.7760762   -2.2188897 
C     0.0581576    3.7037425   -3.1759739 
C     0.0723858    5.0945123   -3.0107285 
H     0.2492455    5.7548320   -3.8636102 
C    -0.1250175    5.6236525   -1.7259263 
C    -0.3531315    4.7860167   -0.6226243 
H    -0.4728089    5.2427972    0.3617485 
C    -2.4707949    1.7621287    0.4128305 
H    -2.9120721    2.7455651    0.1681241 
C    -3.0204267    1.2864132    1.7694915 
H    -4.0452028    0.9109965    1.6203658 
H    -2.4222686    0.4684687    2.2015933 
H    -3.0494879    2.1141425    2.4950722 
C     0.2621561    3.0500668   -4.5224197 
F    -0.8710258    2.4197573   -4.9339504 
F     0.6217804    3.9220065   -5.4788151 
F     1.2268706    2.0877145   -4.4454968 
C     0.0222104    7.1144822   -1.5060277 
F    -0.6366619    7.5268615   -0.4008253 
F     1.3341155    7.4403175   -1.3368757 
F    -0.4316417    7.8241564   -2.5586622 
C    -1.7016153    5.9635870    4.1017861 
F    -1.2696632    6.9831135    3.3191135 
F    -3.0270684    5.8141177    3.8611722 
F    -1.5478978    6.3337590    5.3879897 
C     1.5605007    2.2980306    5.3411121 
F     2.4192823    1.4283755    4.7359592 
F     2.3096375    3.2149730    5.9942081 
F     0.8770838    1.5955910    6.2699513 
C     2.3561036   -6.2175701    1.4362926 
H     2.4246670   -6.7915098    2.3748879 
H     1.5491991   -6.6383051    0.8145635 
H     3.3041933   -6.3611762    0.8851837 
C     3.0001734   -2.1900858    4.4501341 
H     4.1030074   -2.1321110    4.3929305 
H     2.6169040   -1.1728056    4.6265823 
H     2.7636024   -2.8217018    5.3231604 
C    -1.9288732   -5.4981067   -2.9826590 
H    -2.3216597   -5.8556463   -2.0172759 
H    -2.7550693   -5.4401861   -3.7112056 
H    -1.2222696   -6.2581359   -3.3641061 
C    -0.0527875   -1.3140337   -5.1481904 
H    -0.1418299   -0.2343997   -4.9508351 
H     0.9713163   -1.4956568   -5.5262996 
H    -0.7553973   -1.5915493   -5.9505609 
O     3.3353529   -4.9122912    3.8040874 
O    -1.2308489   -3.9346057   -5.2170263 
C     4.7271832   -5.1328179    3.5502839 
H     5.1058914   -5.7244653    4.3968231 
H     4.8871794   -5.6963010    2.6118435 
H     5.2810441   -4.1756501    3.4967535 
C    -0.1703730   -4.6006377   -5.9172423 
H    -0.6059670   -4.9747555   -6.8554936 
H     0.6603843   -3.9075601   -6.1489284 
H     0.2230699   -5.4509414   -5.3281182 
