106
Energy =
C    -3.0841673   -0.9049500   -1.3880770 
C    -2.8237379   -1.5703370   -0.1632440 
C    -2.6520266   -0.8392439    1.0445502 
H    -2.5940474   -2.6426833   -0.1740606 
Pd   -1.1447843   -0.1634963   -0.4852153 
P     0.3683005    0.8454130    0.9802581 
P    -0.1781905    0.6020554   -2.4360592 
H    -3.5120820    0.1071388   -1.3293163 
H    -3.1351922    0.1477252    1.1052089 
C    -3.3492962   -2.6739315   -5.2998051 
C    -3.4934029   -1.2896636   -5.1234675 
C    -3.4309174   -0.7350490   -3.8405661 
C    -3.1993605   -1.5489525   -2.7074313 
C    -3.0670108   -2.9432311   -2.8998208 
C    -3.1470147   -3.4983187   -4.1811079 
H    -3.4039264   -3.1109070   -6.3020726 
H    -3.6628396   -0.6386784   -5.9873193 
H    -3.5577338    0.3447047   -3.7105291 
H    -2.9078877   -3.6057619   -2.0427005 
H    -3.0516252   -4.5816871   -4.3092166 
C    -1.6695438   -2.4771122    4.8999907 
C    -1.4146575   -3.2321693    3.7423299 
C    -1.7294672   -2.7172008    2.4822258 
C    -2.3043501   -1.4315465    2.3479348 
C    -2.5595546   -0.6865549    3.5209274 
C    -2.2478243   -1.2053196    4.7837435 
H    -1.4230106   -2.8836145    5.8862124 
H    -0.9662256   -4.2276644    3.8256735 
H    -1.5175387   -3.3191451    1.5920087 
H    -3.0068288    0.3094457    3.4353873 
H    -2.4585613   -0.6121385    5.6794759 
Fe    3.1893598    0.5063340   -1.9547778 
C     1.4299081    1.4182518   -2.3224450 
C     2.0387279    1.9732073   -1.1189909 
C     3.3267261    2.4901687   -1.5172882 
C     3.5077894    2.2720572   -2.9208181 
C     2.3462347    1.6089143   -3.4258429 
C     3.4204720   -1.3483330   -2.7630471 
C     4.6824923   -0.6680183   -2.6880562 
C     4.9333202   -0.3444214   -1.3117479 
C     3.8310251   -0.8272155   -0.5325285 
C     2.8942107   -1.4445445   -1.4293159 
C     1.3765856    2.2563629    0.2133122 
H     4.0560042    2.9616213   -0.8581169 
H     4.3972413    2.5322257   -3.4973895 
H     2.1791644    1.2783375   -4.4516001 
H     2.9357569   -1.7089340   -3.6720418 
H     5.3245409   -0.4134412   -3.5333420 
H     5.8015387    0.1949076   -0.9284861 
H     3.7226177   -0.7332638    0.5475980 
H     1.9414683   -1.8948407   -1.1505620 
H     0.5482636    2.9634932    0.0015447 
C     2.3219203    2.9385435    1.2152023 
H     2.6387954    3.9180722    0.8190691 
H     1.8167960    3.1160045    2.1792282 
H     3.2246278    2.3300003    1.3864630 
C    -1.2944993    1.8241569   -3.1857498 
C    -1.4628315    2.3565423   -4.4464404 
C    -2.5623267    3.2700811   -4.3629418 
C    -2.9894477    3.2409637   -3.0582714 
H    -0.8713502    2.1035030   -5.3253699 
H    -2.9820507    3.8736828   -5.1681085 
H    -3.7762593    3.7583272   -2.5107940 
O    -2.2335257    2.3689591   -2.3287730 
C     0.0300089   -0.6523042   -3.7166450 
C     0.0365090   -2.0273898   -3.6326429 
C     0.2938728   -2.5183299   -4.9527037 
C     0.4231340   -1.4111826   -5.7535343 
H    -0.1339680   -2.6097033   -2.7280139 
H     0.3577193   -3.5589526   -5.2696514 
H     0.6094029   -1.2679212   -6.8170744 
O     0.2677669   -0.2698411   -5.0204030 
C    -2.1696547    3.2172968    4.0438184 
C    -2.3979596    3.3672255    2.6592524 
C    -1.5936034    2.6366043    1.7700941 
C    -0.5792143    1.7783249    2.2490147 
C    -0.3832283    1.6369148    3.6316344 
C    -1.1735196    2.3634352    4.5464536 
H    -2.7976203    3.7760181    4.7486123 
H    -1.7746482    2.7210227    0.6897771 
H     0.3626659    0.9342669    4.0136962 
C     3.0405100   -2.3138691    3.0444888 
C     3.2219639   -0.9654594    3.4203018 
C     2.4187338    0.0145114    2.8139232 
C     1.4493605   -0.3446816    1.8496922 
C     1.2801797   -1.6989486    1.5160665 
C     2.0777219   -2.7016768    2.0994279 
H     3.6715043   -3.0825762    3.5068570 
H     2.5550618    1.0584066    3.1051803 
H     0.5182121   -1.9681314    0.7741170 
C    -3.4832650    4.2914901    2.1530395 
H    -3.6055045    4.2106522    1.0600872 
H    -4.4542650    4.0640548    2.6275518 
H    -3.2447758    5.3442387    2.3908474 
C    -0.9453004    2.2219454    6.0350180 
H    -0.2633278    3.0118836    6.4022135 
H    -1.8887868    2.3165734    6.5987083 
H    -0.4881527    1.2486246    6.2798459 
C     4.2611204   -0.5928126    4.4543768 
H     4.0437634   -1.0781361    5.4230200 
H     5.2667196   -0.9276009    4.1428289 
H     4.2980973    0.4964319    4.6187339 
C     1.9101956   -4.1448494    1.6828905 
H     2.4879419   -4.8251535    2.3288319 
H     0.8493315   -4.4490303    1.7221583 
H     2.2565062   -4.2902029    0.6426191 
