132
Energy =
C     0.5681979   -0.5282890   -3.5754842 
C     0.5962079    0.8602743   -3.2300267 
C     1.5855623    1.3850902   -2.3693586 
H    -0.2462912    1.4940756   -3.5370943 
Pd    0.3517310   -0.2674995   -1.3624743 
P     0.1542798    0.8087031    0.7101553 
P    -0.3927507   -2.3596269   -0.6047968 
H     1.5358026   -1.0444467   -3.6592250 
H     2.4932340    0.7785207   -2.2253877 
C    -2.6089926   -2.1753060   -5.9832044 
C    -2.9090739   -1.2867948   -4.9374258 
C    -1.8810460   -0.7470545   -4.1559223 
C    -0.5301473   -1.0828017   -4.4016782 
C    -0.2432205   -1.9713668   -5.4615993 
C    -1.2720445   -2.5120137   -6.2439287 
H    -3.4132716   -2.6017220   -6.5913178 
H    -3.9500388   -1.0206704   -4.7249163 
H    -2.1256021   -0.0799973   -3.3206147 
H     0.7985571   -2.2397354   -5.6709762 
H    -1.0284887   -3.1981505   -7.0618599 
C     2.0659120    5.4478172   -1.0496503 
C     3.0442563    4.4811189   -0.7763595 
C     2.8661461    3.1612768   -1.2066714 
C     1.7147138    2.7834604   -1.9355410 
C     0.7480024    3.7763204   -2.2231400 
C     0.9176497    5.0888144   -1.7763921 
H     2.2010644    6.4799854   -0.7099009 
H     3.9468005    4.7523175   -0.2198721 
H     3.6234506    2.4056148   -0.9708205 
H    -0.1429510    3.5231533   -2.8037526 
H     0.1540380    5.8401410   -2.0027063 
Fe   -0.4288273   -0.7669781    3.8548998 
C    -0.7735740   -0.1512884    1.9603260 
C    -0.7894695   -1.6043453    2.0457787 
C    -1.8188655   -1.9712106    2.9843690 
C    -2.4340251   -0.7741726    3.4776531 
C    -1.7987078    0.3470420    2.8542191 
C     0.5128612   -1.9425283    5.2259431 
C     1.4731834   -1.2489710    4.4126536 
C     1.2519772    0.1616295    4.5719663 
C     0.1523156    0.3397428    5.4747958 
C    -0.3062643   -0.9597265    5.8796158 
C    -0.8460353    2.3332415    0.5582578 
C    -1.6242950    2.4817306   -0.6030501 
C    -2.4571757    3.5945748   -0.7987942 
C    -2.4862674    4.5815499    0.2106211 
C    -1.7531898    4.4421086    1.4138899 
C    -0.9451223    3.3059658    1.5752423 
C     1.8076936    1.2129105    1.3929310 
C     2.2064605    2.4845050    1.8398128 
C     3.4868831    2.6952582    2.3822656 
C     4.3732245    1.5979525    2.4659939 
C     4.0235725    0.3206159    1.9654763 
C     2.7402583    0.1566574    1.4239383 
C     0.0600198   -2.5442513    1.2340933 
H    -2.0672317   -2.9864742    3.2966802 
H    -3.2271609   -0.7237957    4.2256189 
H    -2.0520793    1.3947623    3.0138509 
H     0.4114780   -3.0250817    5.3245999 
H     2.2356214   -1.7087633    3.7807226 
H     1.8094004    0.9553011    4.0731034 
H    -0.2750372    1.2949766    5.7852392 
H    -1.1421829   -1.1658245    6.5505604 
H    -1.5739572    1.7077951   -1.3791834 
H    -0.4036762    3.1793865    2.5183857 
H     1.5366148    3.3414603    1.7423905 
H     2.4692443   -0.8204288    1.0062509 
H     1.0936356   -2.1567358    1.2463978 
H     0.1944158   -4.7109133   -0.6927057 
H    -2.2753241   -2.6444839   -1.9629721 
C    -4.4874769   -1.4180137   -0.9368237 
C    -3.0248266   -1.2855182   -0.4791422 
C    -2.2278124   -2.5549356   -0.8574973 
C    -2.8697053   -3.8134310   -0.2364411 
C    -4.3379836   -3.9413218   -0.6865920 
C    -5.1441112   -2.6767906   -0.3448208 
H    -4.5180553   -1.4727906   -2.0434103 
H    -5.0514096   -0.5135387   -0.6453011 
H    -2.9930569   -1.1341503    0.6139950 
H    -2.5523335   -0.3958678   -0.9343610 
H    -2.3058428   -4.7232434   -0.5113390 
H    -2.8336872   -3.7258682    0.8654854 
H    -4.3641712   -4.1111593   -1.7811517 
H    -4.7950707   -4.8307046   -0.2168027 
H    -5.2022099   -2.5696187    0.7564979 
H    -6.1825096   -2.7763517   -0.7082440 
C     2.6804129   -4.8396795   -2.0436932 
C     1.9485721   -3.6481598   -1.4014374 
C     0.4168775   -3.8646470   -1.3700797 
C    -0.1406478   -4.2129539   -2.7638181 
C     0.6151725   -5.3957687   -3.3953935 
C     2.1292108   -5.1388608   -3.4466155 
H     2.5543031   -5.7336620   -1.4017642 
H     3.7644985   -4.6301327   -2.0849705 
H     2.1615759   -2.7270854   -1.9794876 
H     2.3350615   -3.4713501   -0.3796237 
H    -1.2158344   -4.4547641   -2.6985921 
H    -0.0578434   -3.3336167   -3.4220427 
H     0.4204632   -6.3135191   -2.8061503 
H     0.2170519   -5.5803273   -4.4093580 
H     2.3318267   -4.2743326   -4.1105915 
H     2.6525385   -6.0056133   -3.8877502 
C     0.0912137   -3.9720875    1.8042504 
H     0.3329794   -3.9119407    2.8794873 
H    -0.8743846   -4.4909579    1.6997769 
H     0.8668537   -4.5861627    1.3200977 
C    -3.2883841    3.7404400   -2.0511286 
H    -4.2274258    4.2753412   -1.8352978 
H    -2.7493462    4.3196590   -2.8255256 
H    -3.5268298    2.7546363   -2.4843234 
C    -1.8688309    5.4951698    2.4901257 
H    -1.3470354    6.4245008    2.1952859 
H    -2.9248898    5.7633370    2.6608775 
H    -1.4258082    5.1469424    3.4371944 
O    -3.3104802    5.6762500    0.0739025 
C    -2.7647749    6.7822080   -0.6575507 
H    -3.5220476    7.5794477   -0.6260108 
H    -1.8272625    7.1444105   -0.1940392 
H    -2.5633723    6.5114628   -1.7116582 
C     3.9299289    4.0628495    2.8452870 
H     4.9574843    4.2736845    2.5043756 
H     3.2532611    4.8458691    2.4669000 
H     3.9392350    4.1298287    3.9490368 
C     5.0154566   -0.8175600    2.0078668 
H     5.0104201   -1.3139572    2.9968532 
H     4.7740680   -1.5829125    1.2515326 
H     6.0394138   -0.4479157    1.8351934 
O     5.6424349    1.8062659    2.9564370 
C     5.8194809    1.5434123    4.3565360 
H     6.8727183    1.7659698    4.5827120 
H     5.1647809    2.1901394    4.9709832 
H     5.6060868    0.4850444    4.5982450 
