106
Energy =
C    -3.1948018   -1.3551905   -1.3199878 
C    -2.7651488   -2.2872492   -0.3460569 
C    -2.6513892   -1.9272820    1.0323405 
H    -2.3514381   -3.2487331   -0.6739452 
Pd   -1.3687441   -0.6006709   -0.2083437 
P     0.1624197    0.1650105    1.3886828 
P    -0.2859487    0.4451109   -1.9882399 
H    -3.8043445   -0.5084597   -0.9674505 
H    -3.3501421   -1.1716116    1.4213699 
C    -3.4440234   -1.9855485   -5.5676204 
C    -3.9958511   -0.8388244   -4.9785356 
C    -3.9028436   -0.6480432   -3.5950734 
C    -3.2490832   -1.5936120   -2.7721926 
C    -2.6831881   -2.7364789   -3.3838921 
C    -2.7887732   -2.9327082   -4.7632945 
H    -3.5232165   -2.1427857   -6.6482421 
H    -4.5106605   -0.0955979   -5.5961836 
H    -4.3488311    0.2420116   -3.1397444 
H    -2.1545925   -3.4798915   -2.7791652 
H    -2.3517570   -3.8275230   -5.2172718 
C    -1.0370997   -4.6063019    3.9910081 
C    -0.5815840   -4.6763677    2.6638760 
C    -1.0845581   -3.7965458    1.7004468 
C    -2.0656737   -2.8341580    2.0393535 
C    -2.4930299   -2.7587865    3.3823193 
C    -1.9859019   -3.6377470    4.3471667 
H    -0.6456073   -5.2968575    4.7448991 
H     0.1720533   -5.4189665    2.3809585 
H    -0.7032186   -3.8466806    0.6743373 
H    -3.2398479   -2.0099923    3.6669470 
H    -2.3344539   -3.5655478    5.3823166 
Fe    3.2490426    0.8916962   -2.0672967 
C     1.3177177    1.1889517   -1.5424132 
C     2.1260842    0.8464600   -0.3735100 
C     3.1476271    1.8514439   -0.2640098 
C     3.0018260    2.7860699   -1.3372109 
C     1.8842257    2.3833369   -2.1338954 
C     4.3631887    1.0241075   -3.7765145 
C     5.2059479    0.7744439   -2.6414414 
C     4.7856465   -0.4584879   -2.0388762 
C     3.6824050   -0.9691004   -2.8013790 
C     3.4194371   -0.0504241   -3.8740626 
C     1.8602132   -0.2277371    0.6559998 
H     3.9239686    1.8706620    0.5033179 
H     3.6569822    3.6350632   -1.5403852 
H     1.5123224    2.8791188   -3.0307110 
H     4.4117091    1.8971958   -4.4299750 
H     6.0075768    1.4230067   -2.2832286 
H     5.2230088   -0.9151369   -1.1488776 
H     3.1296500   -1.8863214   -2.6019343 
H     2.6270934   -0.1464091   -4.6181879 
H     2.5870014   -0.0971949    1.4774479 
C     1.9180290   -1.6721254    0.1261132 
H     2.9598454   -1.9263099   -0.1284990 
H     1.5500428   -2.3984479    0.8704655 
H     1.3080978   -1.7842140   -0.7856561 
C    -1.2713096    1.7861576   -2.6969057 
C    -2.4829606    2.3166513   -2.3031589 
C    -2.7913567    3.3736690   -3.2177476 
C    -1.7488116    3.4194855   -4.1093488 
H    -3.0770163    1.9839611   -1.4517445 
H    -3.6708455    4.0174700   -3.2141823 
H    -1.5252105    4.0410837   -4.9755736 
O    -0.8190059    2.4675374   -3.8084910 
C    -0.0187735   -0.6227882   -3.4300510 
C    -0.2081791   -0.4776267   -4.7879110 
C     0.2655583   -1.6854563   -5.3950420 
C     0.7028920   -2.4870873   -4.3714445 
H    -0.6297081    0.3939808   -5.2844533 
H     0.2710187   -1.9298334   -6.4572933 
H     1.1362648   -3.4850325   -4.3260115 
O     0.5297180   -1.8601178   -3.1701228 
C     0.6066300    4.7419496    1.8128442 
C     1.2906901    3.9028469    2.7201513 
C     1.1023477    2.5159189    2.6197982 
C     0.2426857    1.9814876    1.6361947 
C    -0.4427073    2.8387707    0.7659931 
C    -0.2618988    4.2348059    0.8340355 
H     0.7579836    5.8265192    1.8776627 
H     1.6281237    1.8466493    3.3107511 
H    -1.1119409    2.4196527    0.0089041 
C    -0.0026044   -1.2953575    5.7721129 
C    -0.9141413   -0.3219844    5.3135302 
C    -0.8402135    0.0784277    3.9717086 
C     0.1279090   -0.4739086    3.1037391 
C     1.0106874   -1.4542246    3.5819391 
C     0.9550309   -1.8762478    4.9264166 
H    -0.0489581   -1.6155304    6.8200028 
H    -1.5300721    0.8452462    3.5993019 
H     1.7626475   -1.9001491    2.9239810 
C     2.2041010    4.4958127    3.7699389 
H     2.9803940    5.1311558    3.3068502 
H     1.6360102    5.1362095    4.4690289 
H     2.7070747    3.7120871    4.3595046 
C    -0.9801595    5.1395551   -0.1424493 
H    -2.0765275    5.0445223   -0.0401668 
H    -0.7133686    6.1974612    0.0120180 
H    -0.7298365    4.8666715   -1.1836974 
C    -1.9678556    0.2413161    6.2400360 
H    -2.7765221   -0.4972159    6.4003869 
H    -1.5458827    0.4802746    7.2313685 
H    -2.4254040    1.1557315    5.8280699 
C     1.9095929   -2.9375328    5.4239377 
H     1.7826882   -3.8724374    4.8482743 
H     2.9604150   -2.6180025    5.3022990 
H     1.7433968   -3.1661536    6.4889531 
