112
Energy =
C     0.9926410    1.9830049    2.3965772 
C     0.6995666    2.7600669    1.2273945 
C    -0.6040717    2.8470740    0.6990504 
H     1.5355255    3.1847245    0.6570175 
Pd    0.1620791    0.6491873    0.8478991 
P    -0.8793365   -0.2846541   -1.0397413 
P     0.5278286   -1.3776456    1.9300619 
H     0.2156019    1.9263041    3.1726511 
H    -1.4359712    2.5322610    1.3478305 
C     5.0272469    1.5099941    3.8255875 
C     3.9511436    1.5333779    4.7245086 
C     2.6394917    1.6653323    4.2526456 
C     2.3779441    1.7888966    2.8711992 
C     3.4711202    1.7392490    1.9738396 
C     4.7809379    1.6056861    2.4460014 
H     6.0524865    1.4080851    4.1958550 
H     4.1325168    1.4444906    5.8002762 
H     1.8053359    1.6844631    4.9620091 
H     3.2900607    1.7916464    0.8939472 
H     5.6137360    1.5734249    1.7353276 
C    -1.8978881    5.0865668   -2.7348703 
C    -0.5518032    5.1482262   -2.3353441 
C    -0.1121590    4.4237166   -1.2243962 
C    -1.0115850    3.6192875   -0.4836805 
C    -2.3669692    3.5841557   -0.8857554 
C    -2.8033998    4.3054540   -2.0025039 
H    -2.2389525    5.6574284   -3.6046803 
H     0.1557770    5.7745208   -2.8882131 
H     0.9373745    4.4986377   -0.9221229 
H    -3.0801241    2.9760784   -0.3194761 
H    -3.8564351    4.2585329   -2.2975055 
Fe    2.3262596   -2.6139562   -0.7435108 
C     0.9421788   -2.6894175    0.7509190 
C     0.3158259   -2.8354176   -0.5572882 
C     0.9082488   -4.0001882   -1.1715155 
C     1.8844934   -4.5544806   -0.2841436 
C     1.9118182   -3.7537328    0.9004321 
C     3.7647839   -2.6852663   -2.1878343 
C     2.8128763   -1.6484225   -2.4759903 
C     2.8291767   -0.7260172   -1.3770234 
C     3.7869008   -1.1870219   -0.4189897 
C     4.3641242   -2.3976265   -0.9133227 
C    -1.0477747   -1.9203301    2.7178951 
C    -1.3611184   -3.2893747    2.8365310 
C    -2.5538167   -3.6837831    3.4573627 
C    -3.4350246   -2.7197354    3.9733621 
C    -3.1206836   -1.3561919    3.8719978 
C    -1.9321041   -0.9571390    3.2434932 
C     1.7238159   -1.5412254    3.3183530 
C     1.2688610   -1.5475585    4.6541529 
C     2.1824042   -1.6753662    5.7101632 
C     3.5544634   -1.7939959    5.4496394 
C     4.0135913   -1.7696031    4.1245156 
C     3.1073897   -1.6360537    3.0663124 
C    -0.9100980   -2.1715089   -1.1457638 
H     0.6557295   -4.3754883   -2.1657820 
H     2.5220638   -5.4171436   -0.4857468 
H     2.5559700   -3.9083345    1.7667163 
H     3.9795537   -3.5524236   -2.8151754 
H     2.1760236   -1.5750729   -3.3592490 
H     2.2199725    0.1698985   -1.2766350 
H     4.0352113   -0.6813020    0.5141272 
H     5.1107987   -3.0101413   -0.4045071 
H    -0.6768424   -4.0426762    2.4317896 
H    -1.6859711    0.1082100    3.1582816 
H     0.2003501   -1.4719133    4.8760483 
H     3.4668294   -1.6299365    2.0369594 
H    -0.8805867   -2.3842181   -2.2270971 
C    -2.2091519   -2.7926934   -0.5863807 
H    -2.1354806   -3.8916694   -0.6547064 
H    -2.3712800   -2.5319724    0.4706364 
H    -3.0860850   -2.4597053   -1.1643766 
H    -2.7964221   -4.7482984    3.5397799 
H    -3.8028987   -0.6019622    4.2775089 
H     1.8143148   -1.6904756    6.7413268 
H     5.0840570   -1.8481189    3.9098994 
H    -4.3660118   -3.0325547    4.4573103 
H     4.2645798   -1.8995553    6.2762203 
C    -5.3052584    1.0919451   -1.0454966 
C    -4.5999509    1.1319653   -2.2630296 
C    -3.2612071    0.6950877   -2.2806675 
C    -2.6455770    0.2290329   -1.1057565 
C    -3.3715306    0.2094700    0.1014158 
C    -4.7119264    0.6310958    0.1461968 
H    -6.3451494    1.4395085   -1.0212011 
H    -2.6929510    0.7510144   -3.2142767 
H    -2.8859057   -0.1344924    1.0209477 
C    -5.2559578    1.6302408   -3.5317570 
H    -6.1292774    2.2668515   -3.3135004 
H    -4.5458039    2.2098246   -4.1463874 
H    -5.6087549    0.7824957   -4.1486747 
C    -5.4815196    0.5909225    1.4486429 
H    -4.9540831    1.1542351    2.2394771 
H    -6.4901904    1.0202904    1.3380350 
H    -5.5885362   -0.4485910    1.8079831 
C     0.8967502    1.1221034   -5.0880857 
C     0.0729960   -0.0205010   -5.0834277 
C    -0.4628526   -0.4521282   -3.8566597 
C    -0.1864560    0.2422695   -2.6610091 
C     0.6193137    1.3927682   -2.7057017 
C     1.1778293    1.8449629   -3.9150051 
H     1.3345861    1.4563631   -6.0367165 
H    -1.1068686   -1.3386863   -3.8520398 
H     0.8281516    1.9352970   -1.7776362 
C    -0.2245284   -0.7592742   -6.3697643 
H     0.7079009   -1.0402630   -6.8908373 
H    -0.8060130   -1.6775324   -6.1863114 
H    -0.8038428   -0.1227711   -7.0632088 
C     2.0532620    3.0767441   -3.9585200 
H     1.4883335    3.9403371   -4.3548778 
H     2.4177657    3.3493120   -2.9546803 
H     2.9262169    2.9234889   -4.6155539 
