124
Energy =
C     1.4492685    2.7288325   -1.5490620 
C     0.5192357    3.3108349   -0.6392060 
C     0.7009317    3.2732634    0.7584796 
H    -0.4132198    3.7244168   -1.0441101 
Pd    0.5619093    1.1426195   -0.2019690 
P    -0.7052657   -0.0112870    1.4201395 
P     1.1163669   -0.7703126   -1.4465410 
H     2.4990283    2.6782548   -1.2240870 
H     1.7132751    3.0458414    1.1257992 
C     0.8575941    3.1052945   -5.8077118 
C    -0.2394144    2.8603601   -4.9664322 
C    -0.0532155    2.7175781   -3.5862964 
C     1.2338933    2.8254631   -3.0122381 
C     2.3250385    3.0887679   -3.8709695 
C     2.1408587    3.2220956   -5.2525005 
H     0.7115708    3.2113898   -6.8874547 
H    -1.2458817    2.7772492   -5.3896878 
H    -0.9153303    2.5021048   -2.9453818 
H     3.3287886    3.2047194   -3.4466356 
H     3.0016869    3.4283121   -5.8970376 
C    -1.7614530    5.2872500    3.6635190 
C    -0.4794078    4.8283670    4.0014439 
C     0.3063943    4.1746643    3.0456578 
C    -0.1713868    3.9514624    1.7327092 
C    -1.4586242    4.4393047    1.4035704 
C    -2.2413054    5.0983792    2.3567724 
H    -2.3780494    5.8014371    4.4076490 
H    -0.0863613    4.9877364    5.0108345 
H     1.3126439    3.8362076    3.3142237 
H    -1.8582378    4.2971699    0.3947814 
H    -3.2331525    5.4701042    2.0795487 
Fe   -1.5518543   -3.5350554    1.3750996 
C    -1.3639307   -1.5905510    0.7632108 
C    -0.6013705   -2.4885009   -0.0943669 
C    -1.5122042   -3.4521642   -0.6533148 
C    -2.8278454   -3.1703228   -0.1616523 
C    -2.7438450   -2.0406085    0.7142249 
C    -1.0423965   -3.7746635    3.3521858 
C    -2.4003590   -4.1726830    3.1230894 
C    -2.3917953   -5.2214649    2.1423068 
C    -1.0278799   -5.4656582    1.7625442 
C    -0.1921749   -4.5697043    2.5102959 
C     0.8563337   -2.3488678   -0.4264806 
H    -1.2448340   -4.2730815   -1.3198625 
H    -3.7319740   -3.7409157   -0.3804937 
H    -3.5857213   -1.6070571    1.2512171 
H    -0.7141876   -3.0084412    4.0545155 
H    -3.2838750   -3.7485544    3.6033236 
H    -3.2693200   -5.7297819    1.7385616 
H    -0.6904421   -6.1974332    1.0261824 
H     0.8971419   -4.5166442    2.4606438 
H     1.3869969   -2.0769786    0.4990095 
C     1.4861491   -3.6496701   -0.9550739 
H     1.2179183   -4.4670534   -0.2631108 
H     1.1275634   -3.9229900   -1.9588619 
H     2.5851320   -3.5852408   -0.9883575 
H    -1.7531404    1.9707099    2.1907212 
C    -4.2393011    1.3716392    3.3603581 
C    -3.0172663    0.4761377    3.0827544 
C    -2.2031368    1.0087015    1.8798859 
C    -3.0611626    1.3015466    0.6233995 
C    -4.3079231    2.1411741    0.9561166 
C    -5.1170167    1.5269744    2.1088881 
H    -3.8885464    2.3706000    3.6861735 
H    -4.8218780    0.9486276    4.1983227 
H    -3.3549731   -0.5598615    2.9023337 
H    -2.3753996    0.4393198    3.9804627 
H    -2.4313826    1.8232380   -0.1228893 
H    -3.3780176    0.3568523    0.1472285 
H    -3.9962911    3.1606213    1.2474900 
H    -4.9318583    2.2437447    0.0500379 
H    -5.5064290    0.5344150    1.8049532 
H    -5.9974177    2.1551394    2.3329102 
H    -0.6035303   -0.9044418    3.6530034 
C     1.2509144    0.6627340    5.0940103 
C     0.5529644    0.9390699    3.7504270 
C     0.1501075   -0.3689962    3.0452674 
C     1.3788456   -1.2797514    2.8646776 
C     2.0805527   -1.5571326    4.2061433 
C     2.4729976   -0.2518336    4.9161449 
H     0.5290900    0.1853296    5.7854501 
H     1.5455784    1.6207320    5.5594019 
H     1.2450666    1.4873321    3.0835436 
H    -0.3197770    1.5947435    3.9080764 
H     1.0634860   -2.2257859    2.3946248 
H     2.0898184   -0.7822911    2.1738839 
H     1.4005646   -2.1391384    4.8588779 
H     2.9690508   -2.1912999    4.0350436 
H     3.2377880    0.2751969    4.3115434 
H     2.9377132   -0.4700591    5.8939110 
H     0.5050403    0.0542539   -3.5608938 
C    -2.1738233   -0.4092581   -4.0540560 
C    -1.3913582   -0.5426324   -2.7359198 
C     0.1058500   -0.8233616   -3.0112949 
C     0.2839752   -2.0742553   -3.8970725 
C    -0.4964110   -1.9142818   -5.2155980 
C    -1.9865936   -1.6451304   -4.9494527 
H    -1.8193377    0.4869468   -4.5971410 
H    -3.2446591   -0.2484861   -3.8333800 
H    -1.8207435   -1.3645723   -2.1375298 
H    -1.4921964    0.3739459   -2.1248334 
H     1.3528605   -2.2626726   -4.1048089 
H    -0.1051636   -2.9572579   -3.3571378 
H    -0.0651453   -1.0716360   -5.7911040 
H    -0.3694457   -2.8206987   -5.8344059 
H    -2.4326764   -2.5290443   -4.4515685 
H    -2.5281931   -1.5125414   -5.9029903 
H     3.0022311   -1.9909637   -2.3226267 
C     5.2988342   -1.0248087   -1.0401662 
C     3.8146694   -0.8184299   -0.6855964 
C     2.9134474   -0.9576452   -1.9352332 
C     3.3698544    0.0062171   -3.0430568 
C     4.8489828   -0.2219673   -3.4013999 
C     5.7497949   -0.0785960   -2.1643048 
H     5.4477624   -2.0742756   -1.3623304 
H     5.9191839   -0.8810878   -0.1373108 
H     3.6657857    0.1938050   -0.2573614 
H     3.5156275   -1.5375317    0.0987603 
H     2.7391242   -0.0931771   -3.9432802 
H     3.2441226    1.0388123   -2.6833277 
H     4.9705799   -1.2348678   -3.8331448 
H     5.1505248    0.4941408   -4.1868810 
H     5.7039750    0.9674726   -1.8003899 
H     6.8040257   -0.2741976   -2.4289833 
