116
Energy =
C    -3.8795872    0.3066382   -0.4969892 
C    -3.1562804    1.5025097   -0.5332197 
C    -2.1440399    1.7597799   -1.5246715 
H    -3.3371116    2.2682393    0.2327724 
Pd   -1.3655754    0.1943425   -0.2230190 
P     0.8327020    0.3042695   -1.0081344 
P    -0.8732966   -1.1512274    1.7335955 
H    -3.7342398   -0.3914412   -1.3350742 
H    -2.2995694    1.2904040   -2.5071303 
C    -7.3050949   -0.6095623    1.9258001 
C    -6.8610006   -1.5059629    0.9414911 
C    -5.7388679   -1.1946643    0.1669554 
C    -5.0293404    0.0157497    0.3612699 
C    -5.5031866    0.9168330    1.3481545 
C    -6.6245153    0.6049022    2.1206429 
H    -8.1846672   -0.8491679    2.5319551 
H    -7.3948143   -2.4468869    0.7737891 
H    -5.4006645   -1.8944553   -0.6050894 
H    -4.9915585    1.8701369    1.5132515 
H    -6.9763662    1.3143689    2.8765817 
C    -0.2689156    5.6496142   -1.6061300 
C    -0.2698492    4.8947623   -0.4213323 
C    -0.8759128    3.6336403   -0.3914725 
C    -1.4848182    3.0929967   -1.5480410 
C    -1.4804768    3.8638867   -2.7291764 
C    -0.8823034    5.1318850   -2.7564013 
H     0.2039866    6.6366868   -1.6310568 
H     0.2084969    5.2878891    0.4820547 
H    -0.8441279    3.0366404    0.5265869 
H    -1.9548531    3.4676059   -3.6337798 
H    -0.8947940    5.7169751   -3.6819320 
Fe    3.6226840    0.5054001    1.3105238 
C     1.7666888    0.7065315    0.5052919 
C     1.6975404   -0.0564817    1.7425948 
C     2.2579798    0.7563705    2.7900539 
C     2.6325565    2.0232591    2.2331577 
C     2.3311391    2.0032320    0.8339617 
C     4.9542036   -0.2901076   -0.0393453 
C     5.4025916    0.9903925    0.4266573 
C     5.5422794    0.9174638    1.8537601 
C     5.1744055   -0.4068440    2.2696499 
C     4.8116199   -1.1539407    1.0988281 
C     1.0211506   -1.3916702    1.8917720 
H     2.3948147    0.4560939    3.8298424 
H     3.1020555    2.8483231    2.7717270 
H     2.4978205    2.8308282    0.1441284 
H     4.7572416   -0.5561341   -1.0788514 
H     5.5980570    1.8676059   -0.1928338 
H     5.8525345    1.7323580    2.5102891 
H     5.1623013   -0.7752683    3.2970698 
H     4.4953962   -2.1986179    1.0784937 
H     1.2015203   -1.9401352    0.9571355 
C     1.6091358   -2.2397525    3.0323689 
H     2.7010235   -2.2964745    2.8807258 
H     1.4323838   -1.8121505    4.0285145 
H     1.2132800   -3.2662261    3.0275154 
C    -1.5981155   -2.9334140    1.7638424 
C    -1.4829853   -0.1288200    3.2459219 
C    -3.0083970   -2.8721110    1.1392354 
H    -3.4241058   -3.8951305    1.0826572 
H    -3.7098556   -2.2590587    1.7224145 
H    -2.9651449   -2.4618520    0.1155748 
C    -0.7825484   -0.4705274    4.5757442 
H    -1.2686884    0.1062667    5.3844035 
H    -0.8575556   -1.5370365    4.8379408 
H     0.2788391   -0.1802148    4.5613889 
C    -0.7265298   -3.8105491    0.8372335 
H    -1.2213277   -4.7899759    0.7068574 
H    -0.6240523   -3.3565268   -0.1630772 
H     0.2792075   -4.0036525    1.2445358 
C    -1.6758501   -3.5818632    3.1627883 
H    -2.0532085   -4.6152307    3.0511659 
H    -0.6954483   -3.6397891    3.6598081 
H    -2.3719643   -3.0513876    3.8306215 
C    -1.2211585    1.3587297    2.9049820 
H    -1.5145906    1.9818525    3.7702699 
H    -0.1634856    1.5647769    2.6774369 
H    -1.8303848    1.6727321    2.0393539 
C    -3.0059285   -0.3117749    3.3977544 
H    -3.2818943   -1.3044282    3.7864299 
H    -3.3843930    0.4393886    4.1151056 
H    -3.5298662   -0.1513859    2.4437205 
H     1.0733633    2.5645857   -1.8125987 
C     1.2111079    2.5806031   -4.5807562 
C     0.7695830    1.4438000   -3.6386042 
C     1.4119590    1.6039583   -2.2419802 
C     2.9541763    1.6357818   -2.3883563 
C     3.3879281    2.7907054   -3.3092454 
C     2.7408031    2.6649808   -4.6969823 
H     0.8226378    3.5382931   -4.1896282 
H     0.7532683    2.4307917   -5.5752053 
H     1.0856804    0.4798491   -4.0819845 
H    -0.3297129    1.4152996   -3.5630308 
H     3.4433847    1.7105266   -1.4060967 
H     3.2983830    0.6819850   -2.8345956 
H     3.0934535    3.7534922   -2.8468708 
H     4.4899596    2.8004202   -3.3923494 
H     3.1249210    1.7522807   -5.1944276 
H     3.0284329    3.5181197   -5.3367975 
H     2.0707939   -0.8423649   -2.6786339 
C     0.6638759   -2.9391069   -3.6809521 
C     0.1762770   -1.8715568   -2.6829239 
C     1.3770569   -1.2603018   -1.9248751 
C     2.1618806   -2.3581569   -1.1903965 
C     2.6926641   -3.3846033   -2.2086394 
C     1.5313186   -4.0122463   -2.9999015 
H     1.2547499   -2.4388927   -4.4736990 
H    -0.2031237   -3.4050936   -4.1826938 
H    -0.5178929   -2.3204263   -1.9456850 
H    -0.3995964   -1.0905059   -3.2093847 
H     2.9711047   -1.9120041   -0.5941870 
H     1.4964885   -2.8947693   -0.4938204 
H     3.3951764   -2.8850161   -2.9047092 
H     3.2697425   -4.1670038   -1.6835658 
H     0.9008024   -4.6007472   -2.3039170 
H     1.9170238   -4.7231383   -3.7518985 
