124
Energy =
C    -0.2217934   -2.2952247   -2.1756049 
C     0.6288031   -1.3960646   -2.8806520 
C     1.9328539   -1.0931212   -2.4266178 
H     0.2160276   -0.8314045   -3.7256719 
Pd    0.3330703   -0.5364018   -0.8668107 
P     1.2557001    1.2995236    0.2553139 
P    -1.2344275   -0.7322655    0.8394861 
H     0.2674878   -3.0883617   -1.5925397 
H     2.3783072   -1.7803392   -1.6904088 
C    -4.1964014   -3.3167998   -3.4673910 
C    -3.4442068   -4.2076186   -2.6887783 
C    -2.1654950   -3.8493800   -2.2460458 
C    -1.6018314   -2.6001731   -2.5888431 
C    -2.3817442   -1.7032689   -3.3571113 
C    -3.6624687   -2.0585414   -3.7923356 
H    -5.1987739   -3.5948086   -3.8061845 
H    -3.8608474   -5.1819542   -2.4161066 
H    -1.5851419   -4.5496327   -1.6358906 
H    -1.9782673   -0.7185802   -3.6191845 
H    -4.2488290   -1.3510296   -4.3883668 
C     4.8580202    1.3328081   -4.4391211 
C     5.1169949    0.8055091   -3.1649508 
C     4.1526458    0.0258173   -2.5205322 
C     2.8992579   -0.2318491   -3.1234323 
C     2.6509567    0.3146782   -4.4046016 
C     3.6239430    1.0775535   -5.0575634 
H     5.6159938    1.9347341   -4.9506840 
H     6.0751302    1.0009978   -2.6732133 
H     4.3678475   -0.3900216   -1.5306209 
H     1.7013366    0.1176588   -4.9121434 
H     3.4192663    1.4748681   -6.0569712 
Fe   -3.2205034    2.1756012    0.1956244 
C    -2.0348103    0.8583850    1.1864247 
C    -1.4019868    2.1736921    1.0948387 
C    -2.2906534    3.1052764    1.7475491 
C    -3.4505707    2.4048101    2.2114108 
C    -3.3041004    1.0252128    1.8686096 
C    -4.8615404    1.7574781   -0.9552134 
C    -4.8547820    3.1343503   -0.5501160 
C    -3.6456358    3.7362352   -1.0406880 
C    -2.9044214    2.7283103   -1.7450165 
C    -3.6563489    1.5080104   -1.6962259 
C    -0.1164803    2.5961160    0.3958611 
H    -2.1292219    4.1791957    1.8401054 
H    -4.3096858    2.8544322    2.7121821 
H    -4.0101443    0.2221310    2.0857841 
H    -5.6411430    1.0302886   -0.7223208 
H    -5.6243573    3.6322279    0.0423734 
H    -3.3379470    4.7723558   -0.8873873 
H    -1.9368258    2.8643183   -2.2336352 
H    -3.3543868    0.5545535   -2.1324021 
H    -0.3410317    2.6045546   -0.6865693 
C     0.3280941    4.0249950    0.7573444 
H    -0.4339611    4.7407908    0.4037515 
H     0.4474888    4.1608872    1.8418924 
H     1.2776512    4.2798809    0.2624092 
C     3.8511041   -0.3583732    3.7607132 
C     3.9788530   -0.7515602    2.4162422 
C     3.1451781   -0.2002124    1.4436780 
C     2.1734588    0.7786593    1.7610480 
C     2.0231627    1.1847457    3.1102830 
C     2.8696429    0.5974672    4.0717369 
H     4.7099473   -1.5158033    2.1334573 
H     3.2357064   -0.5421297    0.4068756 
H     2.7380946    0.8949424    5.1188924 
C     4.1265532    3.9774936   -2.1820653 
C     2.8937007    3.5782899   -2.7399695 
C     2.0841923    2.7041578   -2.0005302 
C     2.4686392    2.2811850   -0.7104007 
C     3.7012321    2.6918866   -0.1781917 
C     4.5518117    3.5394038   -0.9174406 
H     4.7782243    4.6431140   -2.7607711 
H     1.1417187    2.3460046   -2.4345014 
H     4.0046126    2.3592680    0.8201596 
C     4.7217074   -0.9522778    4.8423653 
H     5.5425740   -0.2608201    5.1101838 
H     4.1405938   -1.1398596    5.7620138 
H     5.1754438   -1.9027049    4.5172545 
C     1.0159299    2.2055255    3.5818697 
H     0.0630401    2.1356593    3.0359253 
H     0.7977902    2.0631106    4.6523008 
H     1.4100857    3.2311792    3.4596586 
C     2.4542878    4.0979898   -4.0894820 
H     1.6602936    3.4692914   -4.5246655 
H     2.0617215    5.1284044   -3.9990244 
H     3.2968926    4.1288571   -4.8004168 
C     5.8847948    3.9661218   -0.3431623 
H     5.7457961    4.5975608    0.5534673 
H     6.4802935    3.0889157   -0.0324939 
H     6.4753788    4.5416729   -1.0741902 
C     0.6738304   -1.8009175    4.9955699 
C    -0.3520296   -0.8791403    4.8937747 
C    -0.9081819   -0.5676198    3.6282578 
C    -0.4446001   -1.1749031    2.4631667 
H     1.1114391   -2.0422462    5.9703532 
H    -0.7411957   -0.3797657    5.7867829 
H    -1.7103532    0.1732636    3.5765475 
C     0.6126117   -2.1507904    2.5428764 
C     1.1769923   -2.4577667    3.8362841 
C     2.2263937   -3.4189137    3.9283833 
C     2.7040889   -4.0706300    2.8035400 
C     2.1419652   -3.7844711    1.5332028 
C     1.1245396   -2.8516757    1.4130721 
H     2.6485697   -3.6375177    4.9152236 
H     3.5070893   -4.8094412    2.8923304 
H     2.5123363   -4.3049481    0.6434090 
H     0.6950585   -2.6370892    0.4284626 
C    -3.7366784   -1.6355340   -0.0260377 
C    -2.5880307   -1.9576823    0.6901913 
C    -2.4543127   -3.2612865    1.2598085 
C    -3.4690881   -4.1909200    1.1155320 
H    -3.8406950   -0.6372749   -0.4519133 
H    -1.5573553   -3.5252913    1.8268641 
H    -3.3623375   -5.1854116    1.5626216 
C    -4.6631136   -3.8814095    0.4010156 
C    -4.7983180   -2.5687183   -0.1775906 
C    -5.9846120   -2.2505635   -0.9022717 
C    -6.9946929   -3.1867025   -1.0502720 
C    -6.8595877   -4.4829512   -0.4826481 
C    -5.7189513   -4.8226314    0.2283168 
H    -6.0778505   -1.2587205   -1.3569881 
H    -7.9005563   -2.9334379   -1.6108234 
H    -7.6647440   -5.2143420   -0.6082476 
H    -5.6161970   -5.8211118    0.6673774 
