116
Energy =
C    -3.4090126   -1.5837180   -0.7082046 
C    -2.9757425   -0.4605622   -1.4040095 
C    -1.7997425   -0.4896723   -2.2358500 
H    -3.5879074    0.4499396   -1.3917313 
Pd   -1.0270483   -0.2608254   -0.1780704 
P     1.1544468    0.4311686   -0.6411768 
P    -0.6697983   -0.3563606    2.2658672 
H    -2.8333674   -2.5082209   -0.8550208 
H    -1.4320067   -1.5007666   -2.4673139 
C    -7.0865039   -2.1587688    1.4139889 
C    -6.2048769   -3.2299594    1.2022854 
C    -5.0086949   -3.0225148    0.5074924 
C    -4.6656425   -1.7406416    0.0105963 
C    -5.5774033   -0.6741348    0.2193875 
C    -6.7696923   -0.8821997    0.9140752 
H    -8.0226956   -2.3168404    1.9590572 
H    -6.4529252   -4.2283709    1.5764906 
H    -4.3249409   -3.8613559    0.3377143 
H    -5.3450902    0.3275573   -0.1554960 
H    -7.4611960   -0.0478076    1.0690401 
C    -1.5278833    2.1460490   -5.6450928 
C    -1.9949624    2.6436433   -4.4171761 
C    -2.0857788    1.8031051   -3.3025762 
C    -1.6899109    0.4489611   -3.3790982 
C    -1.2570892   -0.0443834   -4.6313980 
C    -1.1749747    0.7926467   -5.7511070 
H    -1.4561880    2.8056295   -6.5158192 
H    -2.2924824    3.6939187   -4.3291064 
H    -2.4549595    2.2088706   -2.3555671 
H    -0.9878589   -1.1020210   -4.7260925 
H    -0.8343376    0.3861477   -6.7090443 
Fe    3.5794328   -1.8058229    0.9215264 
C     2.3752929   -0.1888796    0.5752067 
C     2.1479419   -0.7631160    1.8991817 
C     3.4002313   -0.6935692    2.6135707 
C     4.3991968   -0.1355650    1.7572804 
C     3.7865795    0.1580552    0.5014695 
C     3.2969989   -3.7971435    1.3177962 
C     2.9477568   -3.5019482   -0.0394209 
C     4.1079670   -2.9503262   -0.6883226 
C     5.1717825   -2.9097341    0.2715077 
C     4.6705898   -3.4277927    1.5124206 
C     0.8923689   -1.4169319    2.4565030 
H     3.5819005   -1.0508697    3.6269728 
H     5.4538015   -0.0024385    2.0047977 
H     4.2979027    0.5786515   -0.3652809 
H     2.6328581   -4.2222181    2.0726649 
H     1.9707186   -3.6708202   -0.4961325 
H     4.1737988   -2.6248367   -1.7264950 
H     6.1785595   -2.5255042    0.0978900 
H     5.2291404   -3.5044552    2.4472202 
H     0.6325045   -2.2339656    1.7578089 
C     1.1551402   -2.0384148    3.8384566 
H     2.0837532   -2.6319714    3.8016491 
H     1.2654745   -1.2764150    4.6278492 
H     0.3486734   -2.7247474    4.1277686 
C    -2.1061857   -1.3816579    3.0598141 
C    -0.4711755    1.3155732    3.2137786 
C    -2.0802289   -2.7385705    2.3193980 
H    -3.0232998   -3.2776208    2.5163190 
H    -1.9783931   -2.6145574    1.2280770 
H    -1.2515066   -3.3760086    2.6725792 
C    -1.3049752    2.3537246    2.4253115 
H    -1.1761359    3.3531854    2.8802809 
H    -0.9985662    2.4127734    1.3687182 
H    -2.3802019    2.1095556    2.4462403 
C    -2.1199408   -1.6860526    4.5793761 
H    -2.9474205   -2.3978747    4.7575505 
H    -1.2009434   -2.1580447    4.9504143 
H    -2.3244209   -0.7995342    5.1921052 
C    -3.3931173   -0.5894578    2.7386662 
H    -4.2780603   -1.2348236    2.8808980 
H    -3.5024218    0.2791386    3.4094855 
H    -3.4000909   -0.2235166    1.7008929 
C    -0.9710673    1.2895271    4.6733593 
H    -0.7580893    2.2761423    5.1249019 
H    -2.0575355    1.1294791    4.7449650 
H    -0.4549690    0.5282564    5.2802195 
C     1.0147677    1.7375593    3.2669852 
H     1.5179331    1.7248369    2.2910218 
H     1.0697509    2.7690761    3.6613353 
H     1.5930675    1.0879215    3.9433046 
H     0.9303485    2.3591129    0.7001490 
C     0.0336667    4.5169957   -0.7892293 
C     0.1051844    3.0236811   -1.1517125 
C     1.2175579    2.3010262   -0.3639292 
C     2.5885477    2.9995350   -0.4872008 
C     2.4701190    4.4957750   -0.1329163 
C     1.3956217    5.2030283   -0.9717473 
H    -0.2890592    4.6229501    0.2656087 
H    -0.7393896    5.0073240   -1.4083754 
H     0.2647735    2.9181153   -2.2375004 
H    -0.8586632    2.5302180   -0.9312547 
H     3.3155776    2.5251190    0.1910054 
H     2.9860217    2.8976146   -1.5135037 
H     2.2146363    4.5908806    0.9413643 
H     3.4538219    4.9802305   -0.2669565 
H     1.6830537    5.1715875   -2.0414603 
H     1.3307290    6.2696621   -0.6922842 
H     3.0930393    0.0467419   -1.9770027 
C     2.7155724    0.6706025   -4.6235728 
C     1.8547314    1.0757948   -3.4102083 
C     2.0249897    0.0512703   -2.2696644 
C     1.6770882   -1.3703262   -2.7520346 
C     2.5442931   -1.7707753   -3.9587570 
C     2.4103327   -0.7564611   -5.1057069 
H     3.7862515    0.7406231   -4.3453978 
H     2.5537133    1.3957369   -5.4412179 
H     0.7963571    1.1332636   -3.7098222 
H     2.1522480    2.0833320   -3.0798930 
H     1.7981271   -2.0851939   -1.9227748 
H     0.6139699   -1.3956852   -3.0424266 
H     3.6062447   -1.8216684   -3.6458653 
H     2.2675072   -2.7851324   -4.2987918 
H     1.3798143   -0.7917153   -5.5052004 
H     3.0823009   -1.0300265   -5.9386514 
