132
Energy =
C     1.6298969   -2.6608259   -0.2691812 
C     1.5292598   -2.8649147    1.1367507 
C     0.2986147   -3.2426437    1.7256186 
H     2.3829248   -2.5994196    1.7736367 
Pd    0.1455096   -1.2435923    0.5968562 
P    -1.5893439   -0.0946318    1.7238482 
P     0.2392326    0.2614195   -1.1907685 
H     0.9417190   -3.2338295   -0.9088564 
H    -0.4448298   -3.7041974    1.0581790 
C     5.2536027   -1.4240802   -2.2402772 
C     4.8879919   -0.8329073   -1.0195674 
C     3.7142631   -1.2288724   -0.3703794 
C     2.8730810   -2.2142880   -0.9341706 
C     3.2438163   -2.7887447   -2.1681470 
C     4.4288377   -2.4058027   -2.8078845 
H     6.1751114   -1.1180342   -2.7464585 
H     5.5192962   -0.0571865   -0.5733678 
H     3.4288562   -0.7494864    0.5718129 
H     2.5948641   -3.5425983   -2.6262211 
H     4.7049554   -2.8717826   -3.7590752 
C    -0.4658597   -4.0421234    5.8827904 
C    -1.4058021   -4.3835354    4.8982521 
C    -1.1346647   -4.1244536    3.5496916 
C     0.0754881   -3.5067661    3.1549375 
C     1.0177757   -3.1782378    4.1583726 
C     0.7496082   -3.4465278    5.5045377 
H    -0.6736525   -4.2451678    6.9381551 
H    -2.3508070   -4.8580737    5.1821417 
H    -1.8688573   -4.3992915    2.7835242 
H     1.9633390   -2.6972491    3.8884674 
H     1.4906203   -3.1852148    6.2669785 
Fe   -2.4278554    2.5293088   -2.1719234 
C    -1.4526305    0.8365168   -1.5662929 
C    -2.3606243    1.3093682   -0.5361234 
C    -3.6835345    1.3452418   -1.1032080 
C    -3.6034024    0.8993710   -2.4654448 
C    -2.2336609    0.5972365   -2.7613628 
C    -2.7415736    4.4902536   -1.6542393 
C    -1.3661132    4.2738614   -1.9944843 
C    -1.3201493    3.7855823   -3.3472888 
C    -2.6652642    3.6956892   -3.8338794 
C    -3.5449018    4.1272320   -2.7861739 
C     0.8204989   -0.4454154   -2.7749220 
C     1.9235003    0.0489660   -3.4873712 
C     2.3200971   -0.5302168   -4.7073683 
C     1.5970805   -1.6446941   -5.1834470 
C     0.4914753   -2.1773996   -4.4751618 
C     0.1213359   -1.5676554   -3.2695040 
C     1.3066695    1.6837084   -0.7701246 
C     1.5349371    2.7472379   -1.6607804 
C     2.3587411    3.8294404   -1.3086687 
C     2.9579592    3.8203840   -0.0251546 
C     2.7322198    2.7732862    0.8988636 
C     1.9068380    1.7107631    0.5030308 
C    -1.9524048    1.5776799    0.8858031 
H    -4.5884694    1.6875986   -0.5984838 
H    -4.4341073    0.8504843   -3.1721069 
H    -1.8399557    0.2558495   -3.7193352 
H    -3.1164095    4.8634379   -0.6998025 
H    -0.5119835    4.4447459   -1.3380186 
H    -0.4282870    3.5219119   -3.9179627 
H    -2.9676888    3.3343907   -4.8185029 
H    -4.6352787    4.1511688   -2.8329780 
H     2.5004727    0.8920104   -3.0966428 
H    -0.7320141   -1.9698384   -2.7087570 
H     1.0501185    2.7429562   -2.6399864 
H     1.7154069    0.8831784    1.1977934 
H    -0.9452736    2.0359752    0.8608121 
H    -2.0721782    1.2186506    3.6990224 
H    -2.7938218   -1.9701393    2.4256514 
C    -4.3365202   -3.0092656    0.4151736 
C    -3.2495085   -1.9237203    0.3248302 
C    -3.0925127   -1.2003049    1.6836538 
C    -4.4327616   -0.5893457    2.1410933 
C    -5.5152221   -1.6818770    2.2328320 
C    -5.6757482   -2.4244095    0.8955660 
H    -4.0059718   -3.7963435    1.1227101 
H    -4.4590782   -3.4985616   -0.5679393 
H    -3.5167306   -1.1918258   -0.4580086 
H    -2.2797158   -2.3655293    0.0224963 
H    -4.3223912   -0.0747333    3.1125783 
H    -4.7507687    0.1704706    1.4038308 
H    -5.2330042   -2.4032179    3.0252745 
H    -6.4750111   -1.2310590    2.5428838 
H    -6.0560229   -1.7175534    0.1317181 
H    -6.4316962   -3.2242544    0.9898597 
C     0.3394989    1.4836461    5.1097390 
C     0.0831173    1.0004744    3.6719487 
C    -1.3377785    0.4125390    3.5132878 
C    -1.5989317   -0.7046027    4.5422053 
C    -1.3341786   -0.2083412    5.9754323 
C     0.0852559    0.3607734    6.1272932 
H    -0.3290605    2.3393188    5.3288233 
H     1.3742655    1.8628815    5.1942428 
H     0.8165793    0.2116822    3.4075307 
H     0.2399692    1.8312701    2.9595036 
H    -2.6371008   -1.0708136    4.4652811 
H    -0.9397203   -1.5593337    4.3285160 
H    -2.0736807    0.5744215    6.2371725 
H    -1.4920179   -1.0447573    6.6797955 
H     0.8199562   -0.4518247    5.9639008 
H     0.2427931    0.7314271    7.1558660 
C    -2.8945086    2.5399278    1.6273543 
H    -3.0317825    3.4374591    1.0022868 
H    -3.8867451    2.1033547    1.8164061 
H    -2.4706146    2.8641669    2.5907536 
C     3.4848124    0.0306998   -5.4876849 
H     3.5953799    1.1126732   -5.3074116 
H     4.4337031   -0.4499470   -5.1837382 
H     3.3486528   -0.1401923   -6.5679477 
C    -0.2551917   -3.3645201   -5.0350300 
H     0.3789452   -4.2700685   -5.0404248 
H    -1.1577237   -3.5836380   -4.4417536 
H    -0.5493035   -3.1806242   -6.0824177 
O     1.9092717   -2.2137215   -6.3992499 
C     3.0044024   -3.1375407   -6.4081321 
H     3.0401361   -3.5664282   -7.4205964 
H     3.9657210   -2.6339812   -6.1930440 
H     2.8492612   -3.9485769   -5.6705760 
C     2.5720657    4.9897732   -2.2531793 
H     3.4635068    4.8339128   -2.8894853 
H     1.7069218    5.1161592   -2.9247648 
H     2.7251961    5.9242767   -1.6890598 
C     3.3574461    2.8300160    2.2726640 
H     3.0190151    1.9872511    2.8968110 
H     4.4601300    2.7922195    2.2145068 
H     3.1005921    3.7761698    2.7795483 
O     3.7186912    4.8886800    0.3902421 
C     5.0852540    4.9061338   -0.0483748 
H     5.5425794    5.7983361    0.4040590 
H     5.6233786    4.0013055    0.2931456 
H     5.1598880    4.9744265   -1.1496699 
