112
Energy =
C     1.9829661   -0.1989106   -2.4810705 
C     2.1431524    1.1656112   -2.1389719 
C     2.8419847    1.5708539   -0.9725264 
H     1.6011517    1.9214002   -2.7201058 
Pd    1.0728324    0.2351829   -0.4307407 
P     0.9955547    0.7770892    1.8309562 
P    -0.7171622   -1.2749638   -0.3702737 
H     2.6915293   -0.9110074   -2.0307330 
H     3.6029638    0.8848961   -0.5750410 
C     0.0790933   -1.7471076   -6.0202544 
C     0.8018138   -2.5905599   -5.1623685 
C     1.4223208   -2.0657899   -4.0228411 
C     1.3182282   -0.6924539   -3.6997769 
C     0.5999971    0.1468842   -4.5837956 
C    -0.0063723   -0.3749649   -5.7315608 
H    -0.4026700   -2.1522015   -6.9157390 
H     0.8911496   -3.6584360   -5.3872385 
H     2.0045228   -2.7245419   -3.3691571 
H     0.5095856    1.2177711   -4.3768436 
H    -0.5539221    0.2921891   -6.4050946 
C     3.3352457    5.6462347    0.3351082 
C     2.3748290    5.3428415   -0.6447321 
C     2.2023731    4.0257435   -1.0790499 
C     2.9880044    2.9755430   -0.5460437 
C     3.9612615    3.3005291    0.4254464 
C     4.1297771    4.6194034    0.8639766 
H     3.4664999    6.6783221    0.6758545 
H     1.7566938    6.1398369   -1.0713135 
H     1.4399301    3.8143257   -1.8368395 
H     4.5925562    2.5066086    0.8371606 
H     4.8885836    4.8435064    1.6208506 
Fe   -2.9559514   -0.4568935    2.2988437 
C    -1.5247177   -1.4921264    1.2453794 
C    -1.0411051   -1.1194895    2.5675570 
C    -1.9398296   -1.7046823    3.5324511 
C    -2.9693320   -2.4162243    2.8393874 
C    -2.7357391   -2.2701515    1.4363317 
C    -4.9390463    0.0296571    2.1858376 
C    -4.4058010    0.3670062    3.4747625 
C    -3.3337685    1.2993301    3.2816926 
C    -3.2027881    1.5383925    1.8739326 
C    -4.1967670    0.7534288    1.1973744 
C     0.2747803   -0.5124299    3.0034729 
H    -1.8532602   -1.5963668    4.6161125 
H    -3.8160507   -2.9304203    3.2978774 
H    -3.3649799   -2.6772192    0.6436534 
H    -5.7471952   -0.6782969    1.9922451 
H    -4.7369702   -0.0417792    4.4313066 
H    -2.7196152    1.7408735    4.0661837 
H    -2.4831752    2.2098109    1.4084810 
H    -4.3661737    0.7168384    0.1212803 
H     0.0870301    0.0391685    3.9422836 
C     1.2856174   -1.6420927    3.3113187 
H     0.7917487   -2.3969577    3.9456770 
H     1.6148870   -2.1454788    2.3872315 
H     2.1727247   -1.2649796    3.8431952 
H     0.0129432   -2.8542212   -1.9750842 
C    -0.6660514   -5.4407332   -1.3131061 
C    -1.2075666   -4.1283519   -0.7138062 
C    -0.1788127   -2.9927188   -0.8928622 
C     1.1548666   -3.3800318   -0.2164385 
C     1.7033535   -4.7023118   -0.7834099 
C     0.6719632   -5.8366831   -0.6680504 
H    -0.5296456   -5.3126573   -2.4053078 
H    -1.4117335   -6.2446965   -1.1789967 
H    -1.4002144   -4.2733016    0.3652075 
H    -2.1738486   -3.8676425   -1.1799312 
H     1.8956957   -2.5664515   -0.3397272 
H     0.9829433   -3.4925327    0.8712557 
H     1.9678285   -4.5565828   -1.8493613 
H     2.6383287   -4.9733124   -0.2606200 
H     0.5036203   -6.0664591    0.4025881 
H     1.0651668   -6.7592184   -1.1308873 
H    -3.0479935   -0.9838230   -0.9360631 
C    -3.3405302   -0.9208801   -3.7242545 
C    -2.1766384   -1.4555495   -2.8679285 
C    -2.1275250   -0.7427934   -1.5011029 
C    -2.0594741    0.7917012   -1.6822392 
C    -3.2249529    1.3149984   -2.5387139 
C    -3.2746883    0.6045079   -3.8999440 
H    -4.3013970   -1.1928218   -3.2437751 
H    -3.3246516   -1.4228821   -4.7083485 
H    -1.2273029   -1.2935469   -3.4044134 
H    -2.2891356   -2.5444022   -2.7380223 
H    -2.0406014    1.2853833   -0.6947843 
H    -1.1002217    1.0417416   -2.1792596 
H    -4.1811358    1.1464683   -2.0046755 
H    -3.1294397    2.4083022   -2.6694837 
H    -2.3666720    0.8636622   -4.4772583 
H    -4.1390430    0.9603640   -4.4884575 
C     5.3639820    1.2513144    3.4001726 
C     5.0145606    0.2059949    2.5287371 
C     3.6969549    0.0878135    2.0710733 
C     2.7056145    1.0051728    2.4869126 
C     3.0668094    2.0559002    3.3510186 
C     4.3896752    2.1735454    3.8056507 
H     6.3954540    1.3490955    3.7537340 
H     5.7713943   -0.5141618    2.2011120 
H     3.4327921   -0.7217465    1.3801048 
H     2.3276110    2.8023293    3.6542646 
H     4.6584443    2.9997988    4.4719118 
C    -1.0887425    4.8499897    2.6310132 
C    -0.8149220    4.0020667    3.7160164 
C    -0.2062381    2.7575038    3.5031446 
C     0.1279453    2.3468335    2.1954981 
C    -0.1572379    3.2014381    1.1126774 
C    -0.7578127    4.4485906    1.3287664 
H    -1.5627362    5.8216686    2.8029854 
H    -1.0756661    4.3116400    4.7333916 
H     0.0047549    2.1112550    4.3620493 
H     0.0882554    2.8738357    0.0977189 
H    -0.9673224    5.1048455    0.4781980 
