112
Energy =
C     1.9827240   -0.4473985   -2.6112090 
C     2.4627711    0.8573115   -2.3118209 
C     3.1614998    1.1247113   -1.1077543 
H     2.1754560    1.6947711   -2.9587913 
Pd    1.0866681    0.3344694   -0.6690284 
P     0.8384182    1.5223214    1.3188230 
P    -0.6923580   -1.1608578   -0.3051980 
H     2.5160343   -1.2900246   -2.1470767 
H     3.6379617    0.2665487   -0.6097024 
C    -0.2675067   -1.5629596   -6.1135345 
C    -0.1729431   -0.2088722   -5.7492123 
C     0.5589634    0.1707388   -4.6198975 
C     1.2232623   -0.7947664   -3.8267706 
C     1.1422562   -2.1493630   -4.2247779 
C     0.3993590   -2.5315865   -5.3490286 
H    -0.8479165   -1.8573302   -6.9937459 
H    -0.6816779    0.5549397   -6.3465489 
H     0.5948371    1.2289122   -4.3400171 
H     1.6806435   -2.9097242   -3.6482845 
H     0.3499341   -3.5877684   -5.6340077 
C     4.9136053    4.8741987    0.0532405 
C     5.2230794    3.6924209    0.7422399 
C     4.6199887    2.4849352    0.3692238 
C     3.7000347    2.4338708   -0.7037703 
C     3.3723995    3.6398846   -1.3661399 
C     3.9791498    4.8429830   -0.9956612 
H     5.3918318    5.8179247    0.3350240 
H     5.9437104    3.7079211    1.5665025 
H     4.8707334    1.5621159    0.9043417 
H     2.6403752    3.6406533   -2.1795965 
H     3.7188631    5.7650594   -1.5248588 
Fe   -2.6206987   -1.3452324    2.7655814 
C    -1.0290433   -1.3052152    1.4861869 
C    -0.9895559   -0.1874224    2.4272075 
C    -0.9489573   -0.7353368    3.7572574 
C    -0.9866491   -2.1621960    3.6655324 
C    -1.0469795   -2.5191254    2.2810620 
C    -4.1350383   -0.6185987    3.9168251 
C    -4.3182427   -0.2184259    2.5504261 
C    -4.4056760   -1.4087787    1.7507940 
C    -4.2717553   -2.5425920    2.6179908 
C    -4.1074339   -2.0546274    3.9585211 
C    -0.8808326    1.2705215    2.0754189 
H    -0.9301249   -0.1606322    4.6837247 
H    -1.0074499   -2.8589154    4.5052899 
H    -1.1023215   -3.5375259    1.8991153 
H    -4.0245351    0.0485523    4.7737536 
H    -4.3922573    0.8085581    2.1874337 
H    -4.5566143   -1.4469386    0.6716496 
H    -4.2847194   -3.5903211    2.3125318 
H    -3.9650495   -2.6665141    4.8510782 
H    -1.5396149    1.4906341    1.2199650 
C    -1.2294404    2.2232596    3.2245193 
H    -2.2664132    2.0279747    3.5495598 
H    -0.5716673    2.0752374    4.0957427 
H    -1.1526733    3.2748287    2.9039948 
H     0.0779909   -2.6338519   -1.9573711 
C    -0.7378814   -5.2347314   -1.5676529 
C    -1.2812575   -3.9409414   -0.9307596 
C    -0.1821124   -2.8551652   -0.9038502 
C     1.1110416   -3.3424101   -0.2095429 
C     1.6197821   -4.6516365   -0.8394452 
C     0.5264513   -5.7324398   -0.8489005 
H    -0.5019777   -5.0383972   -2.6324810 
H    -1.5232598   -6.0114461   -1.5558639 
H    -1.6399095   -4.1565247    0.0918102 
H    -2.1573583   -3.5861688   -1.5009600 
H     1.8854229   -2.5542656   -0.2750851 
H     0.9259457   -3.5021186    0.8679575 
H     1.9456950   -4.4553694   -1.8800036 
H     2.5118521   -5.0053176   -0.2921264 
H     0.2712201   -6.0026321    0.1952361 
H     0.9031422   -6.6529510   -1.3290128 
H    -2.9906432   -1.6086589   -0.8620928 
C    -3.4275558   -0.5682937   -3.4568166 
C    -2.1110648   -0.8645088   -2.7184978 
C    -2.2989490   -0.8088181   -1.1900997 
C    -2.8849930    0.5525553   -0.7710565 
C    -4.2027117    0.8503600   -1.5073274 
C    -4.0196817    0.7846474   -3.0321410 
H    -4.1567206   -1.3744833   -3.2424492 
H    -3.2440083   -0.5889848   -4.5460230 
H    -1.3555372   -0.1102035   -3.0017264 
H    -1.7101281   -1.8396701   -3.0440649 
H    -3.0406158    0.5631331    0.3206695 
H    -2.1441055    1.3426242   -1.0107627 
H    -4.9669817    0.1107028   -1.1971594 
H    -4.5836184    1.8413676   -1.2007243 
H    -3.3356823    1.5964187   -3.3510135 
H    -4.9826227    0.9630471   -3.5428058 
C     3.7087128    0.0018105    4.6404117 
C     3.5391089   -0.7079058    3.4425007 
C     2.6915346   -0.2060287    2.4461965 
C     2.0029836    1.0111765    2.6344269 
C     2.1671389    1.7106930    3.8507150 
C     3.0205397    1.2081102    4.8426166 
H     4.3742330   -0.3858449    5.4186554 
H     4.0662238   -1.6542394    3.2833203 
H     2.5466030   -0.7641638    1.5135286 
H     1.6343865    2.6491022    4.0289051 
H     3.1464330    1.7616511    5.7789102 
C     0.8832988    6.0947220    0.5108352 
C     1.8181791    5.5670318    1.4113540 
C     1.8476574    4.1914310    1.6826098 
C     0.9287429    3.3305534    1.0546514 
C     0.0059519    3.8639450    0.1250872 
C    -0.0194472    5.2380305   -0.1396533 
H     0.8644002    7.1699017    0.3051966 
H     2.5428780    6.2253086    1.9008981 
H     2.6063133    3.7945024    2.3609332 
H    -0.6910456    3.1972786   -0.3974705 
H    -0.7424081    5.6408577   -0.8566098 
