116
Energy =
C     2.3917385   -0.7088727   -1.8431087 
C     1.5819786   -1.4547160   -2.7654706 
C     0.7137454   -0.8167651   -3.6596155 
H     1.6272183   -2.5510913   -2.7495058 
Pd    0.3045423   -0.4783144   -1.1953013 
P    -2.0342234   -0.5979368   -0.7784276 
P     0.9223637    0.7266963    0.7368161 
H     2.6774906    0.3022236   -2.1671903 
H     0.7794182    0.2799367   -3.7199720 
C     5.1962346   -2.5576148    0.8623702 
C     4.0404916   -3.2526822    0.4667153 
C     3.1267390   -2.6634496   -0.4131615 
C     3.3550561   -1.3679176   -0.9365098 
C     4.5344739   -0.6914029   -0.5469994 
C     5.4395778   -1.2747674    0.3497139 
H     5.9044562   -3.0174207    1.5589127 
H     3.8472972   -4.2579485    0.8553582 
H     2.2098658   -3.2023473   -0.6768336 
H     4.7484119    0.3000493   -0.9627974 
H     6.3444447   -0.7301650    0.6389161 
C    -1.4942364   -2.5481972   -6.9098702 
C    -1.4453497   -1.1570054   -6.7331597 
C    -0.7240727   -0.6135060   -5.6652417 
C    -0.0403310   -1.4458037   -4.7444053 
C    -0.0816543   -2.8468982   -4.9533128 
C    -0.8032664   -3.3886422   -6.0194101 
H    -2.0569540   -2.9776305   -7.7449849 
H    -1.9657736   -0.4948621   -7.4325719 
H    -0.6819570    0.4739538   -5.5354242 
H     0.4562126   -3.5200474   -4.2787822 
H    -0.8236681   -4.4736483   -6.1642141 
Fe   -1.4698117    1.9822168    3.2446532 
C    -0.5009735    1.6198517    1.4600200 
C    -1.8827665    1.1505033    1.4177185 
C    -2.7370183    2.2774364    1.6899174 
C    -1.9191257    3.4341157    1.8978181 
C    -0.5506112    3.0349054    1.7777622 
C    -0.3816561    2.1740443    4.9710371 
C    -1.5195446    3.0461863    4.9830025 
C    -2.7001881    2.2393221    4.8544316 
C    -2.2920397    0.8669238    4.7713719 
C    -0.8635274    0.8263490    4.8420808 
C    -2.3422973   -0.2425530    1.0725826 
H    -3.8247383    2.2527746    1.7671225 
H    -2.2734148    4.4338331    2.1553221 
H     0.3076282    3.6916273    1.9084370 
H     0.6614736    2.4847336    5.0507017 
H    -1.4929318    4.1354087    5.0502686 
H    -3.7265321    2.6083062    4.8073791 
H    -2.9521715    0.0026112    4.6856029 
H    -0.2532437   -0.0755780    4.8201497 
H    -1.6182248   -0.9426140    1.5219261 
C    -3.7307277   -0.5579987    1.6601118 
H    -3.7324126   -0.2442275    2.7163726 
H    -4.5465159   -0.0267933    1.1511991 
H    -3.9517718   -1.6346505    1.6285638 
C    -2.6423461   -2.4089359   -1.0217995 
C    -3.0336856    0.6529857   -1.8306472 
C    -4.1751260   -2.5746225   -1.0921376 
H    -4.4094569   -3.6527470   -1.1672700 
H    -4.6947005   -2.1842713   -0.2050607 
H    -4.5983791   -2.0863061   -1.9842565 
C    -3.1634337    0.1062658   -3.2660284 
H    -3.5378136    0.9137202   -3.9217760 
H    -2.1925160   -0.2247416   -3.6648736 
H    -3.8745055   -0.7321778   -3.3376440 
C    -2.0129422   -2.9569720   -2.3197818 
H    -2.3036831   -4.0165786   -2.4422861 
H    -2.3354680   -2.4171621   -3.2208413 
H    -0.9122105   -2.9092038   -2.2677291 
C    -2.0574489   -3.2398124    0.1461126 
H    -2.2372730   -4.3111217   -0.0564603 
H    -0.9651462   -3.0925497    0.2285879 
H    -2.5155903   -3.0082012    1.1206252 
C    -4.4335226    0.9910830   -1.2804165 
H    -4.9362222    1.6687293   -1.9952578 
H    -5.0701051    0.0997211   -1.1655974 
H    -4.3765609    1.5185139   -0.3165126 
C    -2.1763804    1.9417479   -1.8862036 
H    -2.7180214    2.7067150   -2.4729536 
H    -1.9727029    2.3594554   -0.8873976 
H    -1.2103085    1.7485173   -2.3839982 
H     2.9057881    1.3755812   -0.3211486 
C     3.8919989    3.8388284    0.3141103 
C     2.8677617    2.9801546    1.0837721 
C     2.1285823    2.0309531    0.1128623 
C     1.4732797    2.8187046   -1.0474368 
C     2.5006964    3.6892093   -1.7904324 
C     3.2381062    4.6315272   -0.8271027 
H     4.6757761    3.1751664   -0.1028902 
H     4.4003266    4.5192500    1.0204757 
H     2.1569802    3.6460841    1.6028496 
H     3.3922847    2.4068740    1.8622480 
H     0.9929430    2.1091389   -1.7479817 
H     0.6621845    3.4561649   -0.6479199 
H     3.2371233    3.0306387   -2.2937956 
H     1.9933791    4.2626192   -2.5870053 
H     2.5168442    5.3577363   -0.4027021 
H     3.9977196    5.2210676   -1.3704317 
H     2.6523380   -0.7404282    1.3963573 
C     1.5743893   -2.5841618    3.2322180 
C     0.8785790   -1.5704721    2.3087454 
C     1.7896920   -0.3673090    1.9801451 
C     2.3155117    0.3015938    3.2642504 
C     3.0027944   -0.7277753    4.1838633 
C     2.0917949   -1.9188370    4.5162167 
H     2.4259232   -3.0319135    2.6871194 
H     0.8762959   -3.4070670    3.4708524 
H    -0.0415804   -1.1949463    2.7982639 
H     0.5699813   -2.0600844    1.3666173 
H     3.0368725    1.0953379    3.0207378 
H     1.4732540    0.7875499    3.7809439 
H     3.9141336   -1.1008032    3.6765497 
H     3.3368700   -0.2248286    5.1092075 
H     1.2347829   -1.5734669    5.1279148 
H     2.6350148   -2.6540785    5.1360447 
