86
Energy =
C     1.1745881    1.7139098   -2.3310011 
C     0.1534649    2.4175348   -1.6752221 
C     0.2814484    2.8503424   -0.3158732 
H    -0.7919929    2.6060592   -2.1995500 
Pd    0.2216922    0.6375573   -0.3279742 
P    -0.0656897    0.4539105    1.9817073 
P     0.0364677   -1.6748387   -0.8765327 
H     2.1543842    1.6799369   -1.8313852 
H     1.3017700    3.0393867    0.0495409 
C     1.3526854    0.6976602   -6.5033957 
C     0.1318063    1.1128389   -5.9440375 
C     0.0526568    1.4453556   -4.5888840 
C     1.1932413    1.3560109   -3.7531783 
C     2.4192619    0.9547755   -4.3388124 
C     2.4993586    0.6303682   -5.6972834 
H     1.4102362    0.4400662   -7.5657683 
H    -0.7619575    1.1833241   -6.5722925 
H    -0.9060168    1.7789452   -4.1792299 
H     3.3202914    0.9083186   -3.7176879 
H     3.4584420    0.3270433   -6.1289668 
C    -2.7695515    5.2037351    1.6192708 
C    -3.1352604    4.1759807    0.7334089 
C    -2.1514724    3.4112018    0.0970438 
C    -0.7788951    3.6531914    0.3340602 
C    -0.4264045    4.6977810    1.2190132 
C    -1.4116474    5.4653648    1.8546860 
H    -3.5401930    5.8002669    2.1178677 
H    -4.1932706    3.9681670    0.5422830 
H    -2.4481174    2.6002522   -0.5780382 
H     0.6327483    4.9106416    1.4038313 
H    -1.1171689    6.2722810    2.5335647 
Fe    0.9779581   -2.7616607    2.2066112 
C     0.1164012   -2.9738869    0.4005172 
C    -0.8480900   -3.2015392    1.4570879 
H    -1.7737197   -2.6464410    1.6107264 
C    -0.3833820   -4.2930028    2.2622302 
H    -0.8832112   -4.6887092    3.1480069 
C     0.8611963   -4.7510138    1.7213037 
H     1.4812613   -5.5530969    2.1253217 
C     1.1757321   -3.9476413    0.5769007 
C     1.0157502   -0.8223148    2.6868298 
C     2.2762097   -1.2205892    2.0942430 
H     2.6975392   -0.8099101    1.1731531 
C     2.8409805   -2.2610356    2.9014727 
H     3.7716212   -2.7938695    2.6988306 
C     1.9510007   -2.5103699    3.9974002 
H     2.0856571   -3.2659185    4.7736257 
C     0.8278014   -1.6279144    3.8780799 
H     2.0744838   -4.0425816   -0.0341306 
H    -0.0259547   -1.5949922    4.5568287 
C    -1.7926481    0.1075895    2.6638387 
C    -2.0423532    1.2387306    3.6963024 
C    -0.6953934    1.6708415    4.2952146 
C     0.2550682    1.9208332    3.1068085 
H    -1.6947326   -0.8590961    3.1895863 
H    -2.5002633    2.1023400    3.1777446 
H    -2.7579514    0.9033464    4.4674041 
H    -0.7943099    2.5847108    4.9085433 
H    -0.2846064    0.8818808    4.9539854 
H    -0.1333444    2.7908797    2.5508388 
C     1.1386270   -2.3437081   -2.2430238 
C     0.3589948   -2.0426613   -3.5628750 
C    -1.0536722   -1.4840037   -3.2490651 
C    -1.5295477   -1.9948627   -1.8702959 
H     1.1397451   -3.4365549   -2.0831997 
H     0.9146703   -1.3237584   -4.1854025 
H     0.2834090   -2.9763453   -4.1454122 
H    -1.0059307   -0.3821175   -3.2166665 
H    -1.7807744   -1.7480429   -4.0371899 
H    -2.3369104   -1.3494447   -1.4822106 
C    -1.9838540   -3.4614397   -1.8705844 
H    -1.1844366   -4.1419812   -2.2112280 
H    -2.3011871   -3.7930603   -0.8688091 
C     2.5831974   -1.8380280   -2.1807890 
H     3.0962851   -2.1960499   -1.2708752 
H     3.1572005   -2.1903945   -3.0556541 
C    -2.8865619   -0.0037910    1.5950745 
H    -3.8597613   -0.2189461    2.0709360 
H    -2.6768415   -0.8076207    0.8692175 
C     1.7272517    2.1529564    3.4525434 
H     1.8262690    3.0570413    4.0790173 
H     2.3379590    2.3038798    2.5445221 
H     2.1515086    1.3011051    4.0115898 
H    -2.9833989    0.9401055    1.0340474 
H     2.6130874   -0.7368268   -2.1722441 
H    -2.8409346   -3.5783886   -2.5578931 
