112
Energy =
C     2.7685588   -1.5989178   -1.7658494 
C     2.7556534   -0.2487717   -2.2197976 
C     3.0004221    0.8138741   -1.3125747 
H     2.4046575   -0.0347871   -3.2377734 
Pd    1.2067563   -0.4124356   -0.6735629 
P    -0.1510952    1.2128516    0.3636779 
P    -0.0343938   -2.2198191    0.1027249 
H     3.4186129   -1.8363294   -0.9101720 
H     3.5435886    0.5519259   -0.3917040 
C     1.7480755   -4.9799926   -4.2280462 
C     0.9957912   -3.7962394   -4.3205433 
C     1.3278314   -2.6896631   -3.5330028 
C     2.4094838   -2.7468248   -2.6244636 
C     3.1507252   -3.9449915   -2.5344158 
C     2.8300291   -5.0471937   -3.3380919 
H     1.4888575   -5.8454690   -4.8465587 
H     0.1408583   -3.7400492   -5.0023582 
H     0.7210175   -1.7795635   -3.5923725 
H     3.9841151   -4.0098785   -1.8267308 
H     3.4218675   -5.9653072   -3.2606255 
C     2.9867858    5.0456628   -2.1069745 
C     3.3280422    4.5505424   -0.8382614 
C     3.3454013    3.1708202   -0.6068644 
C     3.0026312    2.2519280   -1.6284581 
C     2.6759401    2.7659546   -2.9040117 
C     2.6747964    4.1459328   -3.1391233 
H     2.9795352    6.1239524   -2.2953350 
H     3.5913063    5.2415324   -0.0306508 
H     3.6238482    2.7908633    0.3824121 
H     2.4245075    2.0859950   -3.7238846 
H     2.4305052    4.5235330   -4.1373626 
Fe   -3.2445944    0.5939239    2.0569814 
C    -1.8362632    0.5405862    0.5911422 
C    -2.0782041   -0.7872002    1.1485270 
C    -3.4685092   -1.1005441    0.9496622 
C    -4.0950886    0.0057315    0.2969661 
C    -3.1059454    1.0160791    0.0768166 
C    -2.6978236    0.7656690    4.0195278 
C    -2.8261315    2.0666918    3.4215531 
C    -4.1647115    2.2009984    2.9266178 
C    -4.8690557    0.9853020    3.2218714 
C    -3.9635985    0.0980403    3.8974859 
C    -1.0284825   -1.7379034    1.6565337 
H    -3.9690125   -2.0150762    1.2687615 
H    -5.1538850    0.0861264    0.0450950 
H    -3.2953599    1.9797872   -0.3930283 
H    -1.8018266    0.3580661    4.4927598 
H    -2.0446581    2.8233675    3.3527881 
H    -4.5717509    3.0689406    2.4048421 
H    -5.9050777    0.7642199    2.9589105 
H    -4.1966953   -0.9099820    4.2452582 
H    -0.3001231   -1.1920137    2.2822446 
C    -1.5959843   -2.9227209    2.4463164 
H    -2.1840341   -2.5393117    3.2986759 
H    -2.2641242   -3.5400552    1.8238842 
H    -0.7936785   -3.5695630    2.8341218 
H     0.7073066    3.1041406   -0.8117466 
C    -1.3575096    4.9986294   -1.2719277 
C    -1.2120324    3.8921415   -0.2094791 
C    -0.3299132    2.7291232   -0.7243458 
C    -0.7618180    2.2198279   -2.1286760 
C    -0.9522379    3.3628307   -3.1402011 
C    -1.8941007    4.4480043   -2.6002346 
H    -0.3671629    5.4638061   -1.4454340 
H    -2.0181377    5.7922916   -0.8790868 
H    -2.2123143    3.5270942    0.0806889 
H    -0.7665211    4.3251283    0.6977392 
H    -0.0015530    1.5046989   -2.4977550 
H    -1.7078752    1.6536798   -2.0456319 
H     0.0302196    3.8186575   -3.3588223 
H    -1.3324536    2.9464527   -4.0906348 
H    -2.9065455    4.0235897   -2.4448709 
H    -2.0031621    5.2619806   -3.3388440 
H    -0.3006209    1.1175446    2.7302756 
C     1.0997470    3.1701756    3.9842571 
C     0.6489527    3.0470536    2.5149864 
C     0.4969396    1.5667390    2.1079500 
C     1.8172848    0.8071324    2.3714600 
C     2.2460244    0.9202812    3.8438010 
C     2.3942531    2.3916170    4.2611809 
H     0.2934950    2.7811145    4.6376157 
H     1.2246217    4.2373609    4.2407943 
H     1.3871287    3.5381704    1.8518211 
H    -0.3041743    3.5828165    2.3836183 
H     1.7181061   -0.2546014    2.0742696 
H     2.6096309    1.2307619    1.7262101 
H     1.4840182    0.4292337    4.4818757 
H     3.1924869    0.3720040    4.0002604 
H     3.2266956    2.8486658    3.6900466 
H     2.6658635    2.4655156    5.3290447 
C    -3.4206886   -3.5327154   -2.7827961 
C    -2.9857353   -4.4303924   -1.7953897 
C    -1.9433670   -4.0755169   -0.9278016 
C    -1.3203348   -2.8156690   -1.0524099 
C    -1.7654238   -1.9178481   -2.0447922 
C    -2.8122204   -2.2741662   -2.9038426 
H    -4.2351244   -3.8154138   -3.4579053 
H    -3.4604171   -5.4123246   -1.6984515 
H    -1.6129599   -4.7837110   -0.1614114 
H    -1.2895083   -0.9339369   -2.1305131 
H    -3.1517889   -1.5692113   -3.6697400 
C     2.7612041   -5.7048610    1.3701376 
C     2.6252434   -4.5617118    2.1759333 
C     1.7583242   -3.5325403    1.7917923 
C     1.0085399   -3.6366768    0.5970615 
C     1.1697968   -4.7741839   -0.2193396 
C     2.0373254   -5.8042288    0.1749109 
H     3.4358740   -6.5119255    1.6735881 
H     3.1946628   -4.4737419    3.1069814 
H     1.6651691   -2.6447546    2.4283434 
H     0.6340903   -4.8539765   -1.1696234 
H     2.1526032   -6.6824496   -0.4684973 
