112
Energy =
C     2.7115445   -0.0666687   -1.8394903 
C     2.0204911    1.1067096   -2.2363196 
C     1.8301662    2.1862335   -1.3389773 
H     1.5342485    1.1400964   -3.2189858 
Pd    0.8442660    0.2598400   -0.5720732 
P    -1.0384406    0.9064271    0.6706782 
P     0.5802198   -2.0149170   -0.1023591 
H     3.4257901    0.0421947   -1.0117624 
H     2.5271364    2.2545306   -0.4894997 
C     3.6208230   -3.3823823   -4.4223078 
C     4.2997209   -3.2140999   -3.2067916 
C     3.9714763   -2.1471144   -2.3611790 
C     2.9596524   -1.2248759   -2.7148310 
C     2.2605474   -1.4286654   -3.9280178 
C     2.5951044   -2.4888323   -4.7744365 
H     3.8826743   -4.2092551   -5.0904445 
H     5.0960332   -3.9087485   -2.9199217 
H     4.5144178   -2.0129250   -1.4195551 
H     1.4466405   -0.7552242   -4.2138578 
H     2.0476434   -2.6252343   -5.7122730 
C     0.0213631    5.9475679   -2.3876307 
C    -0.3693168    4.7766747   -3.0606535 
C     0.2120516    3.5479249   -2.7347343 
C     1.1914565    3.4590669   -1.7181559 
C     1.5834738    4.6459521   -1.0589987 
C     1.0073784    5.8783869   -1.3927800 
H    -0.4374274    6.9080322   -2.6431211 
H    -1.1355046    4.8242330   -3.8415175 
H    -0.1185113    2.6433948   -3.2544230 
H     2.3480870    4.5967977   -0.2756469 
H     1.3257828    6.7866278   -0.8709775 
Fe   -0.4087291   -0.9371871    3.7116099 
C    -1.3982625   -0.1961560    2.0812933 
C    -1.3397295   -1.6524550    2.0400620 
C    -1.9743172   -2.1395532    3.2426739 
C    -2.4142333   -1.0211840    4.0189726 
C    -2.0556242    0.1736378    3.3190099 
C     0.8423163    0.2598384    4.7970422 
C     0.2521118   -0.7474817    5.6305311 
C     0.6131141   -2.0305153    5.0984815 
C     1.4275081   -1.8194355    3.9379105 
C     1.5646000   -0.4021687    3.7457698 
C    -0.9722768   -2.5263266    0.8615857 
H    -2.0848375   -3.1855878    3.5292549 
H    -2.9012311   -1.0699481    4.9945562 
H    -2.2387649    1.1882396    3.6745617 
H     0.7510367    1.3379228    4.9404127 
H    -0.3804242   -0.5687162    6.5019538 
H     0.3037311   -2.9989450    5.4958749 
H     1.8590013   -2.6037117    3.3180707 
H     2.1143658    0.0918918    2.9440041 
H    -2.5607802   -0.4988433   -0.4721824 
C    -3.6263543    0.7488918   -2.6836408 
C    -2.4264316    1.1720325   -1.8172713 
C    -2.5628847    0.6072588   -0.3875304 
C    -3.8967310    1.0082738    0.2757604 
C    -5.0838547    0.5838254   -0.6104906 
C    -4.9598163    1.1547940   -2.0331277 
H    -3.6057104   -0.3518437   -2.8183599 
H    -3.5347442    1.1922927   -3.6916728 
H    -2.3637344    2.2744103   -1.7832395 
H    -1.4771165    0.8188674   -2.2646495 
H    -3.9782245    0.5471011    1.2759066 
H    -3.9258857    2.1043495    0.4204164 
H    -5.1196766   -0.5225817   -0.6603900 
H    -6.0304881    0.9093811   -0.1434858 
H    -5.0198351    2.2602934   -1.9890611 
H    -5.8072016    0.8177162   -2.6562222 
H    -2.0211278    2.4932853    2.1687012 
C    -1.6567615    5.0749186    1.3134489 
C    -1.5377242    3.7647993    0.5094679 
C    -1.1850098    2.5976094    1.4513158 
C     0.1073201    2.8876753    2.2437882 
C    -0.0238358    4.1902498    3.0500742 
C    -0.3927098    5.3715614    2.1378575 
H    -2.5286791    5.0040373    1.9940128 
H    -1.8639830    5.9081337    0.6181444 
H    -0.7617297    3.8718250   -0.2630891 
H    -2.4886506    3.5705625   -0.0137940 
H     0.3305933    2.0343765    2.9053161 
H     0.9474821    2.9701438    1.5270785 
H    -0.8077293    4.0584186    3.8225914 
H     0.9189688    4.3949253    3.5892572 
H     0.4488859    5.5697390    1.4479152 
H    -0.5356981    6.2887326    2.7366589 
H    -1.7342283   -2.3357142    0.0777924 
C    -1.0245510   -4.0273770    1.1833767 
H    -2.0512001   -4.3088036    1.4721468 
H    -0.7540174   -4.6319726    0.3017228 
H    -0.3512701   -4.2786330    2.0191292 
C    -0.4057846   -4.2692982   -4.0558327 
C    -1.1354119   -3.1415130   -3.6481159 
C    -0.7928882   -2.4785708   -2.4642421 
C     0.2758407   -2.9415064   -1.6632411 
C     1.0216178   -4.0530518   -2.0950021 
C     0.6759620   -4.7127325   -3.2837547 
H    -0.6716591   -4.7910043   -4.9808654 
H    -1.9696014   -2.7732973   -4.2545100 
H    -1.3549355   -1.5866818   -2.1643950 
H     1.8896470   -4.3948400   -1.5270167 
H     1.2694430   -5.5722688   -3.6109865 
C     4.4213438   -3.6794950    1.9512007 
C     3.4114402   -4.5777657    1.5737456 
C     2.2434394   -4.1143590    0.9516098 
C     2.0692204   -2.7348302    0.6972130 
C     3.0921418   -1.8446116    1.0859461 
C     4.2588524   -2.3083696    1.7059741 
H     5.3296187   -4.0478920    2.4387363 
H     3.5315560   -5.6494336    1.7629580 
H     1.4775863   -4.8370963    0.6644934 
H     2.9539660   -0.7724813    0.9139507 
H     5.0353868   -1.5975191    2.0058745 
