110
Energy =
C    -3.7134130    1.0915797    0.5183825 
C    -2.8133937    1.6773866    1.4203262 
C    -1.7575379    2.5492121    0.9934810 
H    -2.8648964    1.4083444    2.4832141 
Pd   -1.3439826    0.5518485    0.1714093 
P     0.8639431    1.0056119   -0.3353929 
P    -1.0842015   -1.8530425   -0.2097149 
H    -3.7087019    1.4681894   -0.5156637 
H    -1.9529677    3.1688776    0.1062558 
C    -7.1444747   -1.3081614    1.4732439 
C    -6.8700856   -0.9442070    0.1458388 
C    -5.7507222   -0.1582594   -0.1473612 
C    -4.8733130    0.2715262    0.8774422 
C    -5.1755080   -0.0900070    2.2142738 
C    -6.2969241   -0.8703317    2.5055622 
H    -8.0217845   -1.9203030    1.7056802 
H    -7.5350140   -1.2679489   -0.6613331 
H    -5.5454688    0.1312592   -1.1835727 
H    -4.5284773    0.2379665    3.0336406 
H    -6.5161037   -1.1379788    3.5442320 
C     1.1152555    4.1790050    3.7650012 
C     0.6827775    2.8495222    3.9032780 
C    -0.2532230    2.3158669    3.0103491 
C    -0.7886183    3.1068576    1.9670616 
C    -0.3597371    4.4468598    1.8551437 
C     0.5898715    4.9766952    2.7378230 
H     1.8581295    4.5912868    4.4555626 
H     1.0873690    2.2207646    4.7037315 
H    -0.5463477    1.2631758    3.0989098 
H    -0.7738761    5.0784825    1.0629278 
H     0.9294037    6.0093579    2.6131050 
Fe    3.5362039   -1.0629937    0.9781876 
C     1.7448719   -0.1363726    0.7593393 
C     1.5580243   -1.5775188    0.6669483 
C     2.0769476   -2.1573939    1.8765671 
C     2.5198298   -1.0999295    2.7374538 
C     2.3147129    0.1461366    2.0637968 
C     4.7430939   -1.7130691   -0.5530339 
C     4.9658534   -0.3155469   -0.3006930 
C     5.3748389   -0.1723908    1.0663474 
C     5.4102513   -1.4800142    1.6583000 
C     5.0154023   -2.4317282    0.6587683 
C     1.6581571    2.6592861   -0.2182138 
C     2.9131199    2.8555232    0.3872475 
C     3.4802193    4.1356148    0.4310283 
C     2.8149141    5.2183989   -0.1604758 
C     1.5938257    5.0186733   -0.8242596 
C     1.0138256    3.7483784   -0.8392911 
C     1.1890316    0.6367945   -2.1129746 
C     2.2744780   -0.1435299   -2.5439006 
C     2.4532736   -0.4128357   -3.9058508 
C     1.5580908    0.1200259   -4.8463954 
C     0.4918820    0.9328204   -4.4275366 
C     0.2992361    1.1771853   -3.0639925 
C     0.7824363   -2.2674733   -0.4229559 
H     2.1328545   -3.2233386    2.1011034 
H     2.9731983   -1.2211581    3.7227911 
H     2.5323038    1.1306000    2.4759446 
H     4.4397750   -2.1600948   -1.5019070 
H     4.8483273    0.4986635   -1.0185471 
H     5.6152393    0.7654329    1.5709144 
H     5.6694439   -1.7082126    2.6936515 
H     4.9306299   -3.5108576    0.7986331 
H     3.4568791    2.0066182    0.8078548 
H     0.0448505    3.6078427   -1.3291527 
H     2.9503316   -0.5588293   -1.7940597 
H    -0.5649213    1.7662847   -2.7371172 
H     0.9673921   -1.7164763   -1.3582230 
C     1.2420268   -3.7142635   -0.6677930 
H     2.3236734   -3.6883458   -0.8889691 
H     1.0947174   -4.3713161    0.1997635 
H     0.7311135   -4.1673101   -1.5300251 
C     3.3649141    6.6210166   -0.0263915 
F     2.7584588    7.2725093    1.0046250 
F     4.6917067    6.6254266    0.2234630 
F     3.1443795    7.3534491   -1.1402424 
H     4.4465302    4.2926063    0.9184093 
H     1.0903557    5.8621863   -1.3055640 
H     3.2874638   -1.0355807   -4.2420915 
H    -0.1969545    1.3502695   -5.1674853 
C     1.6820935   -0.2532308   -6.3080898 
F     0.9123462   -1.3380688   -6.5848582 
F     1.2692349    0.7475305   -7.1164405 
F     2.9531931   -0.5658581   -6.6420508 
C    -1.9089550   -2.5528211   -1.7992148 
C    -1.7332017   -2.7253876    1.3762819 
C    -3.2508959   -1.8078415   -1.9788668 
H    -3.7235501   -2.1366632   -2.9226544 
H    -3.9590698   -2.0069784   -1.1611471 
H    -3.0907127   -0.7163801   -2.0367166 
C    -1.3844593   -1.7882428    2.5590558 
H    -1.6932417   -2.2720992    3.5042951 
H    -0.3066674   -1.5681494    2.6225411 
H    -1.9290848   -0.8312468    2.4740019 
C    -1.0022957   -2.1891579   -2.9979375 
H    -1.5475256   -2.4033694   -3.9346232 
H    -0.7438529   -1.1183637   -3.0028878 
H    -0.0691031   -2.7747839   -3.0249324 
C    -2.1525643   -4.0773642   -1.7898086 
H    -2.5781860   -4.3693053   -2.7675286 
H    -1.2243566   -4.6526772   -1.6501754 
H    -2.8709475   -4.3861079   -1.0153498 
C    -3.2688420   -2.8455056    1.2990431 
H    -3.6527730   -3.1211102    2.2979230 
H    -3.7394464   -1.8919477    1.0200163 
H    -3.5989305   -3.6231673    0.5934904 
C    -1.1211803   -4.1162861    1.6333274 
H    -0.0499897   -4.0515351    1.8778024 
H    -1.6299217   -4.5655849    2.5061817 
H    -1.2523002   -4.8028958    0.7824890 
