124
Energy =
C     0.5171135   -2.3906423   -1.7202701 
C     1.4671309   -1.4495254   -2.2119014 
C     2.5726225   -1.0390456   -1.4360976 
H     1.2799502   -0.9525643   -3.1715173 
Pd    0.5462065   -0.5607488   -0.3937274 
P     1.2143256    1.4547559    0.6110148 
P    -1.4122207   -0.7591662    0.8684231 
H     0.8857011   -3.0992022   -0.9666058 
H     2.8409047   -1.6677218   -0.5739253 
C    -2.8393909   -3.8508333   -3.9918099 
C    -2.4105091   -4.5206047   -2.8369703 
C    -1.3261776   -4.0293428   -2.1017441 
C    -0.6528271   -2.8482748   -2.4918957 
C    -1.1178799   -2.1702134   -3.6443684 
C    -2.1872379   -2.6727154   -4.3912896 
H    -3.6828580   -4.2387943   -4.5718858 
H    -2.9220283   -5.4304903   -2.5077106 
H    -0.9870552   -4.5774524   -1.2167363 
H    -0.6384833   -1.2386533   -3.9644142 
H    -2.5202040   -2.1387349   -5.2876329 
C     5.7341797    1.6226847   -2.6252276 
C     4.6451206    1.4122656   -3.4881835 
C     3.6075931    0.5542820   -3.1168409 
C     3.6282075   -0.1109304   -1.8671085 
C     4.7384987    0.0998508   -1.0173322 
C     5.7788274    0.9573187   -1.3921100 
H     6.5475177    2.2934524   -2.9207351 
H     4.6118266    1.9146494   -4.4606179 
H     2.7794874    0.3927868   -3.8137116 
H     4.7780767   -0.4083784   -0.0481638 
H     6.6253061    1.1065344   -0.7144907 
Fe   -2.7343293    2.4392597    0.1921789 
C    -2.1163132    0.8533325    1.2989748 
C    -1.3875614    2.0601285    1.6719968 
C    -2.3740480    3.0218337    2.1023464 
C    -3.6780433    2.4374004    1.9969682 
C    -3.5283882    1.1054488    1.4962246 
C    -4.1532881    3.2876232   -1.0009487 
C    -3.0573946    4.1930000   -0.8031094 
C    -1.8654682    3.5613549   -1.2864482 
C    -2.2217582    2.2603177   -1.7783845 
C    -3.6394636    2.0926743   -1.6050672 
C     0.0935338    2.2900743    1.8908111 
H    -2.1517434    4.0381183    2.4353673 
H    -4.6238423    2.9364953    2.2158035 
H    -4.3278568    0.3943931    1.2810628 
H    -5.1919125    3.4637055   -0.7150014 
H    -3.1167984    5.1804590   -0.3415979 
H    -0.8667088    3.9934192   -1.2703287 
H    -1.5283909    1.5282132   -2.1961776 
H    -4.2286724    1.2119212   -1.8617961 
H     0.2707249    3.3655632    1.7172650 
C     0.4941244    1.9873929    3.3507970 
H    -0.1659517    2.5568047    4.0273204 
H     0.3771712    0.9206161    3.5924421 
H     1.5378084    2.2814834    3.5477126 
C     5.4588357    1.1595150    2.6193770 
C     5.1007595    2.2602630    1.8199362 
C     3.8347917    2.3339362    1.2344254 
C     2.8664567    1.3269147    1.4346357 
C     3.2114702    0.1940989    2.2279111 
C     4.5001289    0.1464400    2.7955284 
H     5.8252346    3.0605355    1.6319595 
H     3.6137770    3.1806094    0.5806591 
H     4.7647970   -0.7300540    3.3993248 
C     1.5064712    4.6838490   -2.7107233 
C     1.2721128    3.3417228   -3.0540774 
C     1.2127954    2.3915814   -2.0182653 
C     1.3751536    2.7625300   -0.6744083 
C     1.5983461    4.1207981   -0.3598379 
C     1.6717081    5.0942638   -1.3716723 
H     1.5464716    5.4387146   -3.5054939 
H     1.0013509    1.3425122   -2.2526243 
H     1.7072643    4.4414989    0.6825400 
C     6.8252231    1.0720123    3.2581872 
H     7.0020136    0.0822370    3.7092393 
H     7.6231475    1.2645973    2.5192026 
H     6.9317829    1.8320039    4.0542551 
C     2.2790766   -0.9648497    2.4912446 
H     1.6880630   -1.2308347    1.5914585 
H     2.8357688   -1.8609138    2.8086826 
H     1.5467793   -0.7353510    3.2848739 
C     1.0964451    2.9236785   -4.4960285 
H     0.5585461    1.9636263   -4.5736081 
H     0.5362216    3.6799889   -5.0708114 
H     2.0795775    2.7974981   -4.9869928 
C     1.9074408    6.5510793   -1.0396338 
H     2.0013947    6.7101091    0.0469830 
H     2.8311524    6.9200366   -1.5205867 
H     1.0767923    7.1794890   -1.4079250 
C    -0.4824077   -2.5350910    5.1012871 
C    -1.1680635   -1.3405654    4.9672737 
C    -1.4949243   -0.8422625    3.6793469 
C    -1.1486977   -1.5425767    2.5251058 
H    -0.2060425   -2.9093921    6.0929842 
H    -1.4515754   -0.7616508    5.8519436 
H    -2.0129548    0.1174756    3.6007294 
C    -0.5012806   -2.8228973    2.6434780 
C    -0.1408786   -3.3081744    3.9531214 
C     0.5420246   -4.5558230    4.0663346 
C     0.8419900   -5.3108737    2.9442705 
C     0.4501222   -4.8537382    1.6585026 
C    -0.2077336   -3.6422021    1.5184511 
H     0.8185243   -4.9132153    5.0642887 
H     1.3642139   -6.2674475    3.0469920 
H     0.6591870   -5.4684574    0.7760497 
H    -0.5403757   -3.3075859    0.5337820 
C    -3.4859148   -2.6828152    0.7757492 
C    -2.8086388   -1.6645914    0.1136878 
C    -3.2050906   -1.2818573   -1.2019538 
C    -4.2916323   -1.8827479   -1.8063228 
H    -3.1863611   -2.9872044    1.7843189 
H    -2.6303488   -0.5156245   -1.7270614 
H    -4.5935825   -1.5816980   -2.8146157 
C    -5.0079368   -2.9309585   -1.1554857 
C    -4.5845283   -3.3483745    0.1580687 
C    -5.2785900   -4.4141810    0.8038025 
C    -6.3418000   -5.0448550    0.1782888 
C    -6.7578750   -4.6342927   -1.1176536 
C    -6.1061302   -3.5989757   -1.7694215 
H    -4.9553035   -4.7279491    1.8025534 
H    -6.8671726   -5.8634134    0.6809933 
H    -7.5997809   -5.1415665   -1.6002460 
H    -6.4249463   -3.2841326   -2.7692040 
