124
Energy =
C     2.3453336    1.6487318    1.9152891 
C     2.1985705    0.4685070    2.6873863 
C     2.5646764   -0.8034191    2.1809056 
H     1.6876704    0.5282065    3.6559198 
Pd    0.9312468    0.1353075    0.9011487 
P    -0.0567505   -1.8646855    0.1566796 
P    -0.1156110    1.5211223   -0.6790887 
H     3.0944186    1.6271205    1.1106216 
H     3.2792907   -0.8177445    1.3442878 
C     1.3433484    5.6318077    3.2254167 
C     2.2157397    5.4278770    2.1463828 
C     2.5424640    4.1265365    1.7440714 
C     1.9943333    2.9977897    2.3966544 
C     1.1318180    3.2231537    3.4956781 
C     0.8136781    4.5215250    3.9050453 
H     1.0866614    6.6470261    3.5443342 
H     2.6532193    6.2840878    1.6222373 
H     3.2450769    3.9774275    0.9170482 
H     0.6852683    2.3752119    4.0258299 
H     0.1410350    4.6709971    4.7561013 
C     2.3696210   -4.5557115    4.2861861 
C     3.0561357   -4.4480950    3.0671280 
C     3.1180076   -3.2171718    2.4027058 
C     2.4839975   -2.0680654    2.9313617 
C     1.7989159   -2.1935683    4.1636978 
C     1.7479855   -3.4206311    4.8331143 
H     2.3246434   -5.5149596    4.8114282 
H     3.5545311   -5.3234171    2.6379240 
H     3.6758424   -3.1342724    1.4627490 
H     1.2921652   -1.3278540    4.6019270 
H     1.2152435   -3.4947372    5.7867379 
Fe   -2.2205915    0.4033056   -3.4069452 
C    -0.6063320    0.5737760   -2.1653571 
C    -1.1554622   -0.7775302   -2.1320539 
C    -1.1177649   -1.3005907   -3.4732092 
C    -0.5580859   -0.3047357   -4.3369237 
C    -0.2539301    0.8493786   -3.5462740 
C    -3.4493499    0.6806553   -5.0055022 
C    -4.0588372   -0.2013388   -4.0494479 
C    -4.1795110    0.5069999   -2.8069710 
C    -3.6451501    1.8267660   -2.9985439 
C    -3.1909693    1.9339340   -4.3540672 
C    -1.5869216   -1.5277599   -0.8993840 
H    -1.4899122   -2.2756251   -3.7903086 
H    -0.4271482   -0.3909315   -5.4169468 
H     0.1644170    1.7775551   -3.9319740 
H    -3.2058599    0.4333936   -6.0403899 
H    -4.3662711   -1.2320914   -4.2355983 
H    -4.6167808    0.1160581   -1.8861890 
H    -3.6004716    2.6156556   -2.2477162 
H    -2.7238299    2.8097988   -4.8077433 
H    -2.1301615   -0.8261073   -0.2463279 
C    -2.5303707   -2.7033012   -1.2062131 
H    -3.3529811   -2.3286457   -1.8404400 
H    -2.0327345   -3.5233858   -1.7439081 
H    -2.9709701   -3.1141171   -0.2852926 
H     1.3955987    3.2762627   -0.2956565 
C     1.6043673    5.0073955   -2.4301038 
C     0.5153299    3.9599860   -2.1273042 
C     1.0946446    2.8207763   -1.2581231 
C     2.3616877    2.1844114   -1.8767676 
C     3.4193902    3.2526516   -2.2078601 
C     2.8366414    4.3683977   -3.0902281 
H     1.9066921    5.4946530   -1.4818978 
H     1.1851712    5.8012025   -3.0738776 
H     0.1122449    3.5623344   -3.0759836 
H    -0.3293961    4.4444416   -1.6075382 
H     2.7756769    1.4314964   -1.1800250 
H     2.0998192    1.6343812   -2.7982206 
H     3.8012512    3.6965340   -1.2675060 
H     4.2841232    2.7760201   -2.7031415 
H     2.5470984    3.9441109   -4.0723322 
H     3.6044538    5.1359673   -3.2931032 
H    -1.9403798    3.0710723   -0.9407953 
C    -2.3953035    4.2335561    1.5967847 
C    -1.1904025    3.4294424    1.0797640 
C    -1.5947427    2.4846660   -0.0679445 
C    -2.7339094    1.5528679    0.3866732 
C    -3.9432939    2.3527859    0.9021427 
C    -3.5412113    3.3088610    2.0368725 
H    -2.7528029    4.9115038    0.7967736 
H    -2.0689864    4.8767448    2.4336362 
H    -0.7830673    2.8131351    1.9012671 
H    -0.3812164    4.1169352    0.7783420 
H    -3.0306792    0.9024178   -0.4526671 
H    -2.3531535    0.8988104    1.1970614 
H    -4.3762016    2.9369530    0.0661124 
H    -4.7321042    1.6561306    1.2389615 
H    -3.2119234    2.7141046    2.9122652 
H    -4.4125524    3.9020556    2.3667083 
H     1.7919844   -3.3175761    0.0156624 
C     3.3123593   -2.7115856   -2.2237578 
C     2.1479772   -1.9219906   -1.6016565 
C     1.2039824   -2.8565653   -0.8045137 
C     0.6780758   -3.9862319   -1.7183923 
C     1.8511120   -4.7792694   -2.3261263 
C     2.8041418   -3.8615996   -3.1081345 
H     3.9437410   -3.1250092   -1.4115245 
H     3.9555299   -2.0279189   -2.8067684 
H     1.5705290   -1.4150587   -2.3976722 
H     2.5325970   -1.1235346   -0.9394107 
H     0.0064131   -4.6652050   -1.1689362 
H     0.0903402   -3.5346316   -2.5373186 
H     2.4075597   -5.2843137   -1.5117400 
H     1.4568121   -5.5770339   -2.9809043 
H     2.2668830   -3.4381637   -3.9796680 
H     3.6535221   -4.4418196   -3.5104459 
H     0.2808933   -2.8116334    2.2816752 
C    -1.2445756   -5.0466516    2.7665628 
C    -0.8922992   -4.3801055    1.4215955 
C    -0.6070927   -2.8757561    1.6261620 
C    -1.7584369   -2.1471928    2.3592368 
C    -2.0947564   -2.8451794    3.6890943 
C    -2.4093876   -4.3342310    3.4720836 
H    -0.3514487   -5.0225163    3.4194573 
H    -1.4873091   -6.1107327    2.5950135 
H    -1.7241123   -4.5287936    0.7107203 
H    -0.0035828   -4.8738308    0.9922189 
H    -1.4734601   -1.0917142    2.5362776 
H    -2.6646305   -2.1308559    1.7233346 
H    -1.2298229   -2.7507893    4.3733555 
H    -2.9453557   -2.3325867    4.1733579 
H    -3.3267399   -4.4289255    2.8572976 
H    -2.6269036   -4.8232826    4.4383936 
