132
Energy =
C     1.9413565   -2.7470774   -0.1556389 
C     1.8068887   -2.8773789    1.2526872 
C     0.5650025   -3.2622235    1.8275799 
H     2.6259192   -2.5299315    1.8956447 
Pd    0.3537769   -1.3635421    0.6212469 
P    -1.4779004   -0.3778950    1.7066743 
P     0.4353334    0.1556150   -1.1483762 
H     1.2815436   -3.3634828   -0.7852811 
H    -0.1192889   -3.8341125    1.1826693 
C     5.5414174   -1.4304195   -2.1086801 
C     5.1107765   -0.7862865   -0.9363568 
C     3.9417544   -1.2061875   -0.2935938 
C     3.1729077   -2.2700238   -0.8174177 
C     3.6025697   -2.8911854   -2.0090042 
C     4.7848110   -2.4850544   -2.6399675 
H     6.4599574   -1.1056805   -2.6086340 
H     5.6859572    0.0499094   -0.5251186 
H     3.6003768   -0.6844672    0.6072793 
H     3.0033907   -3.6995966   -2.4418966 
H     5.1074458   -2.9854830   -3.5585873 
C    -0.3702696   -3.6257396    6.0155734 
C    -1.2627882   -4.0851133    5.0346894 
C    -0.9337450   -3.9726775    3.6786684 
C     0.2873985   -3.3861916    3.2683641 
C     1.1764585   -2.9294225    4.2698638 
C     0.8524002   -3.0545953    5.6251838 
H    -0.6209320   -3.7183554    7.0770369 
H    -2.2139395   -4.5414976    5.3278383 
H    -1.6276462   -4.3477737    2.9173542 
H     2.1281723   -2.4666233    3.9901749 
H     1.5579313   -2.7019735    6.3846667 
Fe   -2.0742786    2.6261545   -1.9113159 
C    -1.2376462    0.8159057   -1.4776048 
C    -2.1602625    1.2323880   -0.4317308 
C    -3.4518337    1.4139423   -1.0449645 
C    -3.3374514    1.1220047   -2.4449441 
C    -1.9772666    0.7648084   -2.7197670 
C    -2.1747377    4.5152902   -1.1169317 
C    -0.8356765    4.2116041   -1.5290881 
C    -0.8656266    3.9184833   -2.9369230 
C    -2.2221933    4.0335931   -3.3865694 
C    -3.0330892    4.3981389   -2.2607336 
C     0.9118338   -0.6471570   -2.7217213 
C     2.0785949   -0.3416763   -3.4405085 
C     2.4099858   -1.0386936   -4.6178822 
C     1.5584074   -2.0813703   -5.0403428 
C     0.4044853   -2.4491289   -4.3043612 
C     0.0957385   -1.7177666   -3.1501325 
C     1.5490241    1.5666698   -0.8232225 
C     1.9351376    2.4751045   -1.8247772 
C     2.7310850    3.5923380   -1.5257247 
C     3.1196159    3.7945401   -0.1787383 
C     2.7639604    2.8871008    0.8467840 
C     1.9811792    1.7750922    0.4996955 
C    -1.8158634    1.3602410    1.0311080 
H    -4.3560696    1.7616688   -0.5430763 
H    -4.1377920    1.2054959   -3.1825968 
H    -1.5609054    0.4977850   -3.6918007 
H    -2.4892827    4.7856907   -0.1076898 
H     0.0459688    4.1944754   -0.8867593 
H    -0.0133475    3.6517489   -3.5616877 
H    -2.5793972    3.8485106   -4.4012386 
H    -4.1156527    4.5385461   -2.2677206 
H     2.7743952    0.4171726   -3.0718179 
H    -0.7945315   -1.9908290   -2.5694343 
H     1.6069623    2.3211312   -2.8565190 
H     1.6994765    1.0490500    1.2725094 
H    -0.8130736    1.8231895    1.0978507 
H    -0.7770111   -1.2455476    3.7767879 
H    -2.7818486   -2.2721020    2.2111126 
C    -3.9786388   -3.2520007   -0.0896387 
C    -2.8945629   -2.1698281    0.0513716 
C    -2.9609815   -1.4904249    1.4429574 
C    -4.3671959   -0.8935593    1.6739144 
C    -5.4472339   -1.9847374    1.5415887 
C    -5.3811405   -2.6794618    0.1721837 
H    -3.7730999   -4.0664004    0.6338113 
H    -3.9252413   -3.7030189   -1.0972056 
H    -3.0284641   -1.4014761   -0.7334137 
H    -1.8884560   -2.6061631   -0.1039636 
H    -4.4385619   -0.4080355    2.6603863 
H    -4.5505032   -0.1154877    0.9115883 
H    -5.3049058   -2.7347847    2.3448150 
H    -6.4447805   -1.5374450    1.7010450 
H    -5.6258915   -1.9444841   -0.6199456 
H    -6.1407947   -3.4788445    0.1092301 
C    -1.9518332   -0.0114893    5.9514548 
C    -2.3959699   -0.0298867    4.4754391 
C    -1.1794988   -0.2409262    3.5473143 
C    -0.0403320    0.7705384    3.8149854 
C     0.3571692    0.7924545    5.3013512 
C    -0.8611571    1.0411868    6.2046549 
H    -1.5628533   -1.0125949    6.2191673 
H    -2.8295942    0.1754111    6.5957738 
H    -2.9112144    0.9175119    4.2386192 
H    -3.1256866   -0.8438403    4.3237111 
H     0.8343859    0.5038821    3.1918892 
H    -0.3521991    1.7878850    3.5092084 
H     0.8108436   -0.1816026    5.5641197 
H     1.1316652    1.5637942    5.4653723 
H    -1.2697408    2.0518974    6.0037978 
H    -0.5573112    1.0297909    7.2666053 
C    -2.8036575    2.2344343    1.8205743 
H    -2.9273254    3.1923220    1.2889453 
H    -3.7963496    1.7710367    1.9174046 
H    -2.4257512    2.4521282    2.8310637 
C     3.6669735   -0.7103878   -5.3878038 
H     4.4236215   -0.2574102   -4.7271970 
H     4.0883021   -1.6198035   -5.8467161 
H     3.4611010    0.0076736   -6.2040650 
C    -0.4396235   -3.6148887   -4.7620046 
H     0.1927194   -4.4949676   -4.9690889 
H    -1.1934092   -3.8821202   -4.0035563 
H    -0.9725919   -3.3800471   -5.7015436 
O     1.8957632   -2.8433946   -6.1379087 
C     1.4977176   -2.3240822   -7.4142771 
H     1.8171359   -3.0643377   -8.1628557 
H     0.3997888   -2.1951743   -7.4684565 
H     1.9840186   -1.3535821   -7.6277152 
C     3.1525330    4.5635291   -2.6032022 
H     4.1319322    5.0086293   -2.3647566 
H     3.2130055    4.0633497   -3.5837631 
H     2.4235275    5.3905689   -2.6993024 
C     3.2349395    3.1177572    2.2634822 
H     2.6781429    3.9454664    2.7409193 
H     3.0899404    2.2166926    2.8817022 
H     4.3008420    3.4000107    2.2782769 
O     3.9312011    4.8587882    0.1422538 
C     3.2614047    6.0990898    0.4110125 
H     4.0476215    6.8301132    0.6506928 
H     2.6893387    6.4494123   -0.4686875 
H     2.5728672    6.0022080    1.2722188 
