124
Energy =
C     2.5378381   -0.8606908   -2.0715144 
C     2.4280871    0.5481391   -2.2563206 
C     2.8260282    1.4665708   -1.2641514 
H     1.9371860    0.9288709   -3.1605115 
Pd    1.1294780   -0.0073699   -0.5502570 
P    -0.2929292    1.4214198    0.7026483 
P     0.1023301   -2.0353986    0.0453036 
H     3.3244748   -1.2086204   -1.3877707 
H     3.5007703    1.0969980   -0.4772348 
C     1.4859747   -3.7312084   -5.1129386 
C     0.9101432   -2.4498799   -5.1340849 
C     1.2277937   -1.5150239   -4.1427870 
C     2.1461394   -1.8320217   -3.1141609 
C     2.7279627   -3.1203141   -3.1156154 
C     2.3965667   -4.0621650   -4.0979956 
H     1.2297412   -4.4631591   -5.8853657 
H     0.2011007   -2.1817236   -5.9241030 
H     0.7452209   -0.5322363   -4.1636250 
H     3.4605025   -3.3769685   -2.3424744 
H     2.8598517   -5.0540574   -4.0775101 
C     2.8535739    5.7483031   -1.7094972 
C     2.0020307    4.9717022   -2.5128475 
C     1.9845954    3.5792799   -2.3809273 
C     2.8116250    2.9287893   -1.4356172 
C     3.6782252    3.7241944   -0.6503620 
C     3.6996211    5.1168089   -0.7845386 
H     2.8645460    6.8381254   -1.8121365 
H     1.3475734    5.4545263   -3.2461037 
H     1.3119230    2.9910506   -3.0130965 
H     4.3430105    3.2391135    0.0732120 
H     4.3794244    5.7120561   -0.1662664 
Fe   -2.9900983    0.2338208    2.8823421 
C    -1.8055793    0.5312609    1.2285642 
C    -1.8934486   -0.8912355    1.5579339 
C    -3.2844841   -1.2602125    1.5272298 
C    -4.0640257   -0.1101324    1.1900585 
C    -3.1675873    0.9917087    1.0208372 
C    -2.2374151    0.2837867    4.8027344 
C    -2.6461895    1.5952502    4.3822351 
C    -4.0389468    1.5399033    4.0515408 
C    -4.4899761    0.1925978    4.2594926 
C    -3.3744640   -0.5851767    4.7188829 
C    -0.7862507   -1.9079022    1.7028218 
H    -3.6718082   -2.2563825    1.7519993 
H    -5.1523185   -0.0650662    1.1213089 
H    -3.4680909    2.0096525    0.7789672 
H    -1.2443479    0.0059052    5.1578464 
H    -2.0115625    2.4807046    4.3308050 
H    -4.6455100    2.3691623    3.6828399 
H    -5.4985282   -0.1810529    4.0728967 
H    -3.3901183   -1.6501589    4.9572660 
H     0.1352287    3.1297062   -0.8586683 
C    -1.8760509    5.0036333   -1.0452930 
C    -1.6156612    3.9592081    0.0572615 
C    -0.8455856    2.7464584   -0.5158942 
C    -1.5441503    2.1388548   -1.7528133 
C    -1.8476722    3.2056100   -2.8210979 
C    -2.6300658    4.3907761   -2.2352846 
H    -0.9054475    5.4084346   -1.3931575 
H    -2.4408801    5.8526880   -0.6204676 
H    -2.5824431    3.6431374    0.4874657 
H    -1.0465852    4.4277293    0.8776411 
H    -0.9041885    1.3425860   -2.1771483 
H    -2.4885188    1.6510082   -1.4496431 
H    -0.8975379    3.5806263   -3.2477761 
H    -2.4063222    2.7416043   -3.6539122 
H    -3.6271928    4.0437250   -1.8984837 
H    -2.8082080    5.1544473   -3.0133105 
H    -0.5736214    3.0311663    2.4487810 
C     1.8771213    4.3086589    2.8929180 
C     1.4528941    3.3967590    1.7278110 
C     0.3183103    2.4453087    2.1503292 
C     0.7666824    1.6085581    3.3574278 
C     1.1724087    2.5124109    4.5354922 
C     2.2849074    3.4931810    4.1302946 
H     1.0338822    4.9790149    3.1518508 
H     2.7069779    4.9597024    2.5634920 
H     2.3133405    2.7778826    1.4147443 
H     1.1770719    4.0111618    0.8546910 
H    -0.0416753    0.9223729    3.6477287 
H     1.6360818    0.9899081    3.0605069 
H     0.2871858    3.0829463    4.8800262 
H     1.4948155    1.8889010    5.3888686 
H     3.2053955    2.9204164    3.9006920 
H     2.5325430    4.1653225    4.9710107 
H    -2.0340373   -3.0712999   -0.4005621 
C    -2.0753235   -4.1401019   -2.9765881 
C    -0.8724227   -3.7205841   -2.1099162 
C    -1.2813257   -2.6364164   -1.0890560 
C    -1.9234137   -1.4312719   -1.8104218 
C    -3.1246482   -1.8582549   -2.6682524 
C    -2.7253905   -2.9402295   -3.6827874 
H    -2.8285835   -4.6405232   -2.3358953 
H    -1.7411131   -4.8894495   -3.7165656 
H    -0.0735249   -3.3293627   -2.7608029 
H    -0.4668820   -4.6113489   -1.6029125 
H    -2.2312113   -0.6682119   -1.0783244 
H    -1.1520999   -0.9675486   -2.4554888 
H    -3.9233859   -2.2448067   -2.0046362 
H    -3.5430088   -0.9738255   -3.1827710 
H    -2.0037303   -2.5111717   -4.4047602 
H    -3.6040099   -3.2686169   -4.2663596 
H     1.4723734   -3.7398295   -0.8445252 
C     1.6083270   -5.9294059    0.7957397 
C     0.6523596   -4.7256155    0.8990469 
C     1.2749761   -3.4857133    0.2153735 
C     2.6379446   -3.1425849    0.8588198 
C     3.5947545   -4.3460359    0.7624608 
C     2.9835450   -5.6043280    1.4017192 
H     1.7275582   -6.2032201   -0.2711751 
H     1.1602713   -6.8044053    1.2996873 
H     0.4690331   -4.5037711    1.9675328 
H    -0.3271940   -4.9760132    0.4544717 
H     3.0785022   -2.2548607    0.3727977 
H     2.4997928   -2.8773129    1.9216989 
H     3.8171667   -4.5502579   -0.3035262 
H     4.5572652   -4.0963242    1.2438255 
H     2.8699139   -5.4389131    2.4914850 
H     3.6671916   -6.4636951    1.2837466 
H    -1.2793589   -2.8870819    1.8387369 
C     0.2001663   -1.6988480    2.8592832 
H    -0.3581841   -1.4042187    3.7607669 
H     0.7494403   -2.6275216    3.0804124 
H     0.9355669   -0.9124682    2.6316869 
