90
Energy =
C     2.1741914   -0.6122795    2.0141608 
C     2.7232326    0.2104627    1.0092777 
C     2.3532234    1.5703658    0.8773942 
H     3.4404172   -0.2191870    0.2998173 
Pd    0.5583235    0.1686327    0.4535588 
P    -0.5381303    1.6826450   -0.9971238 
P    -1.1598750   -1.5097668    0.7450090 
H     1.6860196   -0.1029944    2.8557585 
H     1.8566214    2.0278253    1.7454255 
C     3.6952010   -4.5098745    3.0122042 
C     3.0466674   -3.7233149    3.9762555 
C     2.5470256   -2.4616055    3.6326121 
C     2.6821014   -1.9598138    2.3165519 
C     3.3565000   -2.7574025    1.3613302 
C     3.8534882   -4.0178130    1.7054797 
H     4.0822966   -5.4987556    3.2777109 
H     2.9329053   -4.0925971    5.0005648 
H     2.0503480   -1.8483950    4.3921326 
H     3.4793890   -2.3974069    0.3346340 
H     4.3654735   -4.6236679    0.9508110 
C     4.4159128    4.4274529   -1.5951707 
C     3.6703164    4.8462114   -0.4825921 
C     3.0036362    3.9044254    0.3094364 
C     3.0585008    2.5234657    0.0032598 
C     3.8379315    2.1166316   -1.1054772 
C     4.5052472    3.0577636   -1.8949904 
H     4.9359581    5.1619660   -2.2183371 
H     3.6141269    5.9092273   -0.2268097 
H     2.4390731    4.2372221    1.1862378 
H     3.9095939    1.0564642   -1.3668737 
H     5.0981025    2.7226272   -2.7523096 
Fe   -3.1372957   -0.4630208   -1.9520300 
C    -1.7677865    0.9964902   -2.1497972 
C    -3.0838471    1.5010807   -2.4844279 
H    -3.6047006    2.3243753   -1.9935424 
C    -3.6034277    0.7150215   -3.5639139 
H    -4.5897671    0.8296324   -4.0171474 
C    -2.6247030   -0.2726420   -3.9145119 
H    -2.7357603   -1.0412466   -4.6814721 
C    -1.4942508   -0.1093714   -3.0466666 
C    -2.6835025   -1.5035622   -0.2912670 
C    -2.9977764   -2.3959520   -1.3913477 
H    -2.3324788   -3.1346723   -1.8396367 
C    -4.3314508   -2.1191351   -1.8369232 
H    -4.8347294   -2.6070237   -2.6735128 
C    -4.8639299   -1.0652373   -1.0273957 
H    -5.8515811   -0.6119750   -1.1272353 
C    -3.8626740   -0.6867254   -0.0753621 
C    -0.5919020   -3.2843233    0.4100921 
C    -1.9852694   -1.4158337    2.4429587 
H    -0.5909207   -0.7217652   -3.0435069 
H    -3.9888658    0.0723774    0.6956709 
C    -1.4546963    3.0412361   -0.0793787 
C     0.5767805    2.5975355   -2.2072081 
H    -1.5240233   -3.8088204    0.1355554 
H    -2.5419091   -0.4633576    2.3500681 
H    -1.9980767    3.6000656   -0.8634419 
H     1.3228558    3.0887041   -1.5602117 
C    -2.4702025    2.4560014    0.9116763 
H    -3.0036692    3.2712725    1.4313875 
H    -3.2136865    1.8300544    0.3969914 
H    -1.9606763    1.8393789    1.6752210 
C    -0.4837203    4.0000828    0.6249407 
H    -1.0561548    4.8134349    1.1046095 
H     0.0777921    3.4757365    1.4174071 
H     0.2394117    4.4600571   -0.0672914 
C    -0.1617466    3.6680947   -3.0275385 
H    -0.9771441    3.2267429   -3.6271746 
H    -0.5846011    4.4676899   -2.3964278 
H     0.5507695    4.1436195   -3.7251276 
C     1.3131841    1.5971520   -3.1151754 
H     2.1557193    2.1058532   -3.6131546 
H     1.7208455    0.7453836   -2.5418085 
H     0.6442329    1.2014918   -3.8978715 
C     0.3508057   -3.2551977   -0.8084906 
H     0.6044141   -4.2849498   -1.1171994 
H    -0.1002153   -2.7385382   -1.6734502 
H     1.2885984   -2.7304435   -0.5574003 
C     0.0300352   -4.0349770    1.5958663 
H     0.3371657   -5.0393144    1.2540789 
H     0.9228895   -3.5326721    1.9861912 
H    -0.6833499   -4.1723670    2.4226394 
C    -3.0078188   -2.5399907    2.6935376 
H    -3.5894491   -2.3050722    3.6027609 
H    -3.7172684   -2.6495587    1.8570622 
H    -2.5143730   -3.5114819    2.8587062 
C    -0.9868762   -1.2498864    3.5975649 
H    -1.5374247   -1.1495877    4.5495811 
H    -0.3116488   -2.1157124    3.6884094 
H    -0.3739685   -0.3426656    3.4651320 
