110
Energy =
C     2.6919005    1.0375272    0.7115598 
C     2.7235703    1.9352696   -0.4120012 
C     1.8440651    3.0244085   -0.4983747 
H     3.4001054    1.7210486   -1.2489715 
Pd    0.7746710    0.8355630   -0.3562133 
P    -0.9489044    0.5580538   -1.9714721 
P    -0.1606971   -0.4803330    1.3062211 
H     2.4150862    1.4650163    1.6853166 
H     1.2672071    3.2658267    0.4079994 
C     5.0430402   -2.5741054    0.8934857 
C     4.6375662   -1.9266388    2.0704749 
C     3.8981900   -0.7401624    2.0022966 
C     3.5238771   -0.1825150    0.7576974 
C     3.9442565   -0.8476429   -0.4208039 
C     4.7014479   -2.0220970   -0.3523156 
H     5.6132293   -3.5063372    0.9495576 
H     4.9012098   -2.3513454    3.0442520 
H     3.6142261   -0.2233864    2.9242413 
H     3.6568004   -0.4533974   -1.4024710 
H     5.0173831   -2.5182411   -1.2761521 
C     1.6349131    6.1056800   -3.4757486 
C     0.8441181    6.1680723   -2.3180110 
C     0.9269936    5.1516180   -1.3613723 
C     1.8009740    4.0502340   -1.5395549 
C     2.6066416    4.0139906   -2.7043733 
C     2.5185684    5.0276816   -3.6615196 
H     1.5731232    6.8991569   -4.2274484 
H     0.1639619    7.0112916   -2.1611592 
H     0.3053334    5.1989734   -0.4598947 
H     3.3106864    3.1913587   -2.8618110 
H     3.1483483    4.9851405   -4.5559922 
Fe   -3.1245063   -2.4082362    1.0755287 
C    -1.9396811   -0.7648278    1.0831736 
C    -2.5819679   -0.9283002   -0.2129566 
C    -4.0046016   -0.9114375    0.0148742 
C    -4.2449056   -0.7437805    1.4194249 
C    -2.9799051   -0.6641878    2.0870128 
C    -2.9893261   -4.2291821    0.1261154 
C    -2.0110790   -4.1351677    1.1675563 
C    -2.6998367   -3.8988243    2.4053579 
C    -4.1072139   -3.8506154    2.1252472 
C    -4.2860214   -4.0496544    0.7146941 
C    -0.0659849    0.5672955    2.8133350 
C    -0.9115753    1.6984012    2.8834486 
C    -0.7820542    2.6184111    3.9267917 
C     0.2014223    2.4286056    4.9128479 
C     1.0439766    1.3095116    4.8553566 
C     0.9140740    0.3856880    3.8098014 
C     0.6471384   -2.0763208    1.6836896 
C     1.3609334   -2.6919138    0.6379585 
C     2.0086494   -3.9126180    0.8476104 
C     1.9639022   -4.5125514    2.1155573 
C     1.2265569   -3.9237248    3.1559930 
C     0.5595108   -2.7125776    2.9379992 
C    -1.8686838   -1.0651955   -1.5360135 
H    -4.7765854   -1.0436115   -0.7444779 
H    -5.2236967   -0.7238856    1.9018594 
H    -2.8200647   -0.5388799    3.1590269 
H    -2.7810051   -4.4123906   -0.9293216 
H    -0.9323892   -4.2261397    1.0394359 
H    -2.2380282   -3.7769775    3.3860118 
H    -4.9009125   -3.6689669    2.8522920 
H    -5.2391199   -4.0479532    0.1825732 
H    -1.6772973    1.8567770    2.1184818 
H     1.5831710   -0.4773520    3.7746404 
H     1.4262216   -2.1981234   -0.3364948 
H    -0.0267730   -2.2652771    3.7466530 
H    -1.0059163   -1.7344168   -1.3616971 
C    -2.7621791   -1.7173163   -2.6073973 
H    -3.2386449   -2.6062084   -2.1618646 
H    -3.5604879   -1.0520430   -2.9639955 
H    -2.1788174   -2.0505173   -3.4780301 
C     0.3819771    3.4665426    6.0000032 
F     1.1752854    4.4796659    5.5702852 
F    -0.8007765    4.0124138    6.3646939 
F     0.9585094    2.9422841    7.1038246 
H    -1.4474083    3.4850759    3.9822621 
H     1.7994768    1.1577573    5.6316128 
H     2.5717891   -4.3859298    0.0392971 
H     1.1772536   -4.4159114    4.1313901 
C     2.7926956   -5.7519257    2.3716161 
F     4.0846469   -5.4098624    2.6313312 
F     2.3426711   -6.4563178    3.4310495 
F     2.8087911   -6.5725890    1.2972627 
C    -0.0798287    0.1914086   -3.6481625 
C    -2.2175721    1.9837185   -2.0907954 
C    -1.0112113    0.2026060   -4.8783293 
H    -0.4228812   -0.0818307   -5.7704119 
H    -1.8475813   -0.5062229   -4.7931685 
H    -1.4257411    1.2057597   -5.0672875 
C    -1.5881494    3.1518276   -2.8771843 
H    -2.2365739    4.0405166   -2.7703646 
H    -0.5936970    3.4199137   -2.4880495 
H    -1.5019720    2.9354078   -3.9539868 
C     1.0423634    1.2345854   -3.8500311 
H     1.5967157    0.9898327   -4.7747071 
H     0.6668972    2.2627835   -3.9465928 
H     1.7548936    1.2095310   -3.0076952 
C     0.6065678   -1.1886165   -3.4944412 
H     1.2671026   -1.3568768   -4.3642018 
H     1.2361462   -1.2190981   -2.5847129 
H    -0.1066671   -2.0271759   -3.4564556 
C    -3.5636704    1.5895444   -2.7304727 
H    -4.2006911    2.4910516   -2.7941007 
H    -3.4457278    1.1941803   -3.7519264 
H    -4.1035800    0.8503696   -2.1183327 
C    -2.4593557    2.4538173   -0.6350181 
H    -3.1687468    3.3018417   -0.6447046 
H    -2.8923676    1.6568838   -0.0080999 
H    -1.5177719    2.7978136   -0.1709368 
