98
Energy =
C    -0.5786876   -2.8802239    0.5127226 
C    -1.4366519   -2.1920698    1.4155421 
C    -2.5258025   -1.4321839    0.9347902 
H    -1.1966922   -2.1790042    2.4857835 
Pd   -0.4812938   -0.6530955    0.1570099 
P    -0.9948596    1.6522320    0.1365759 
P     1.5614836   -0.7181493   -1.0382508 
H    -1.0172630   -3.1705850   -0.4520353 
H    -2.8734259   -1.6528597   -0.0853335 
C     2.7444265   -5.3196258    1.7457573 
C     2.3439268   -4.2324412    2.5418527 
C     1.2728887   -3.4253631    2.1472049 
C     0.5673872   -3.6969448    0.9514387 
C     0.9809502   -4.7933344    0.1605754 
C     2.0603870   -5.5957281    0.5526459 
H     3.5872997   -5.9458391    2.0550231 
H     2.8803566   -4.0071048    3.4692217 
H     0.9959083   -2.5604741    2.7595635 
H     0.4413822   -5.0228685   -0.7652208 
H     2.3631790   -6.4429851   -0.0711070 
C    -5.4790195    0.5777304    3.3292293 
C    -4.2247815    0.2751499    3.8871299 
C    -3.2539335   -0.3815674    3.1249120 
C    -3.5102193   -0.7397590    1.7804412 
C    -4.7809598   -0.4394174    1.2375029 
C    -5.7567466    0.2084251    2.0048677 
H    -6.2377862    1.0904033    3.9289661 
H    -4.0060229    0.5497680    4.9241764 
H    -2.2851973   -0.6148685    3.5780624 
H    -5.0007489   -0.7188479    0.2012529 
H    -6.7365803    0.4257099    1.5676866 
Fe    1.5534411    2.5867488   -1.8889808 
C     2.4160342    0.8586743   -1.3631852 
C     2.6522113    1.8714138   -0.3554919 
H     2.3406484    1.8080810    0.6864822 
C     3.3444524    2.9662372   -0.9679707 
H     3.6359381    3.8944030   -0.4734085 
C     3.5521599    2.6461303   -2.3489722 
H     4.0291912    3.2873617   -3.0922572 
C     2.9914595    1.3509574   -2.6002327 
C    -0.3456254    2.6206231   -1.2613690 
C    -0.2717162    2.1296028   -2.6218074 
H    -0.5980828    1.1447581   -2.9551240 
C     0.3276855    3.1452833   -3.4355502 
H     0.5473288    3.0631430   -4.5014240 
C     0.6229849    4.2713917   -2.5997280 
H     1.1078761    5.1964420   -2.9166307 
C     0.2084670    3.9611231   -1.2628082 
H     2.9881963    0.8427575   -3.5654553 
H     0.3166830    4.6184107   -0.3986673 
C    -0.4928572    2.6672303    1.6485370 
C    -1.6655345    3.6811853    1.8639776 
C    -2.6374696    3.6857798    0.6675147 
C    -2.7767611    2.2298534    0.1835343 
H     0.4383028    3.1886290    1.3641334 
H    -2.2233995    3.3641554    2.7637805 
H    -1.2708611    4.6903189    2.0727196 
H    -3.6174025    4.0976067    0.9658980 
H    -2.2604355    4.3184174   -0.1569150 
H    -3.2494511    1.6367228    0.9881384 
C     1.4599167   -1.5081721   -2.7566069 
C     2.7513460   -2.3771852   -2.8745290 
C     3.7800182   -1.9919545   -1.7978440 
C     3.0085894   -1.7799171   -0.4795589 
H     1.4852164   -0.6614197   -3.4651107 
H     2.4636694   -3.4334709   -2.7191987 
H     3.1729263   -2.3059066   -3.8919819 
H     4.5400245   -2.7845709   -1.6839513 
H     4.3174030   -1.0643405   -2.0697701 
H     2.5602521   -2.7426222   -0.1748306 
C     3.8105213   -1.2040842    0.6986105 
H     4.1909206   -0.2009814    0.4313238 
H     3.1273442   -1.0662843    1.5576711 
C     4.9867721   -2.0975803    1.1189182 
H     5.7477593   -2.1653104    0.3223997 
H     5.4818566   -1.6900044    2.0170469 
H     4.6447716   -3.1210140    1.3510082 
C     0.1948404   -2.3414777   -3.0412615 
H     0.3662418   -2.8671675   -4.0002001 
H     0.1166623   -3.1384979   -2.2789413 
C    -1.1188779   -1.5613293   -3.1269284 
H    -1.9711228   -2.2389552   -3.3071099 
H    -1.3183507   -1.0112372   -2.1827346 
H    -1.0967854   -0.8250961   -3.9500870 
C    -0.2391930    1.8338688    2.9229591 
H    -1.1460749    1.2381032    3.1320730 
H    -0.1502778    2.5497617    3.7626632 
C     0.9893479    0.9208192    2.9100573 
H     1.0610206    0.3472616    3.8505111 
H     0.9354039    0.1923491    2.0744434 
H     1.9260549    1.4964003    2.8018455 
C    -3.5396844    2.0031732   -1.1311705 
H    -3.5225793    0.9207306   -1.3659780 
H    -3.0045880    2.5084284   -1.9569105 
C    -4.9925821    2.4985519   -1.0852207 
H    -5.0396799    3.5949913   -0.9681774 
H    -5.5225225    2.2407172   -2.0181124 
H    -5.5429285    2.0459032   -0.2420420 
