124
Energy =
C     2.6169885   -0.7421370   -1.9497455 
C     2.8124077    0.6762161   -1.8829892 
C     3.0897278    1.3201646   -0.6633040 
H     2.6417493    1.2823607   -2.7811789 
Pd    1.0562423    0.1408798   -0.6259520 
P    -0.4412294    1.6091406    0.4449059 
P    -0.1114169   -1.8202811   -0.0520828 
H     3.2019803   -1.3571622   -1.2544928 
H     3.4289016    0.6828800    0.1677831 
C     1.3312087   -2.7849837   -5.5237894 
C     1.0269061   -1.4249763   -5.3445613 
C     1.4525408   -0.7529921   -4.1946692 
C     2.1995409   -1.4195250   -3.1944269 
C     2.5201022   -2.7801296   -3.4034110 
C     2.0847402   -3.4572569   -4.5498553 
H     0.9901328   -3.3131822   -6.4198711 
H     0.4436955   -0.8888580   -6.1006555 
H     1.1766639    0.2966692   -4.0565444 
H     3.1278634   -3.3080394   -2.6609808 
H     2.3435162   -4.5123774   -4.6874996 
C     3.8712159    5.4940424    0.0232571 
C     4.2261158    4.5267880    0.9747823 
C     3.9576514    3.1739742    0.7341949 
C     3.3401546    2.7548644   -0.4674884 
C     3.0184598    3.7406052   -1.4309772 
C     3.2710524    5.0926019   -1.1829271 
H     4.0734590    6.5533001    0.2114598 
H     4.7144499    4.8268500    1.9075448 
H     4.2340953    2.4243178    1.4838510 
H     2.5653841    3.4500277   -2.3812207 
H     3.0078287    5.8397505   -1.9388331 
Fe   -2.5805430    0.5219816    3.3150679 
C    -1.7804688    0.8061163    1.4147430 
C    -1.8611959   -0.6116726    1.7449585 
C    -3.2376955   -0.9131284    2.0416329 
C    -4.0151807    0.2814082    1.9034114 
C    -3.1244398    1.3431904    1.5499771 
C    -2.4261074    1.9824218    4.7551631 
C    -3.6979333    1.3262008    4.8202334 
C    -3.4656608   -0.0711385    5.0538622 
C    -2.0497238   -0.2778067    5.1398514 
C    -1.4081343    0.9902281    4.9568708 
C    -0.7456857   -1.6343334    1.7183783 
H    -3.6155713   -1.8863108    2.3620241 
H    -5.0860116    0.3775628    2.0922894 
H    -3.4178279    2.3809144    1.3850385 
H    -2.2676534    3.0497104    4.5979110 
H    -4.6722279    1.8003608    4.6876904 
H    -4.2328506   -0.8441430    5.1287578 
H    -1.5538421   -1.2342923    5.3144490 
H    -0.3336613    1.1725381    4.9912257 
H    -2.1436359    3.1715889   -0.1166489 
C    -1.7110886    1.0558180   -2.8606213 
C    -2.4187548    1.6761953   -1.6481961 
C    -1.5003512    2.5799181   -0.7905846 
C    -0.7104133    3.5786937   -1.6683762 
C    -0.0541392    2.9320208   -2.8966949 
C    -1.0628654    2.1363036   -3.7339379 
H    -2.4294822    0.4528863   -3.4424528 
H    -0.9181632    0.3595892   -2.5108961 
H    -2.8844037    0.8953181   -1.0212904 
H    -3.2508898    2.3102835   -2.0115960 
H    -1.4349563    4.3409619   -2.0155299 
H     0.0435987    4.1219177   -1.0712840 
H     0.4440304    3.7082999   -3.5046647 
H     0.7315916    2.2330578   -2.5488215 
H    -0.5680245    1.6840508   -4.6122214 
H    -1.8425162    2.8166143   -4.1291110 
H     1.0577731    3.4439618    0.8260000 
C     1.7794762    3.2793559    3.5967676 
C     1.1387653    2.2607765    2.6383373 
C     0.3432791    2.9366347    1.5038881 
C    -0.6666545    3.9648534    2.0519321 
C     0.0144920    4.9813282    2.9875848 
C     0.7523642    4.2837816    4.1404201 
H     2.5674614    3.8347588    3.0566852 
H     2.2776712    2.7426509    4.4249300 
H     0.4431036    1.6084869    3.1947158 
H     1.9134545    1.6037742    2.2025030 
H    -1.1608237    4.5024287    1.2237381 
H    -1.4530335    3.4180401    2.6053526 
H     0.7370758    5.5829566    2.4020493 
H    -0.7419605    5.6858004    3.3782952 
H     0.0207633    3.7579217    4.7839753 
H     1.2528360    5.0300635    4.7827450 
H    -2.0807958   -1.2115096   -1.1981967 
C    -3.8878121   -3.2321877   -1.5026837 
C    -2.6850560   -3.1649061   -0.5415232 
C    -1.6104718   -2.2100844   -1.1086607 
C    -1.1643171   -2.6564738   -2.5197496 
C    -2.3654190   -2.7662691   -3.4748239 
C    -3.4596217   -3.6846429   -2.9084704 
H    -4.3586218   -2.2306810   -1.5624369 
H    -4.6510217   -3.9167165   -1.0906511 
H    -2.2703458   -4.1797570   -0.4156892 
H    -3.0202749   -2.8293827    0.4510541 
H    -0.4163520   -1.9560959   -2.9266241 
H    -0.6680523   -3.6434838   -2.4539573 
H    -2.7867477   -1.7561778   -3.6418324 
H    -2.0170632   -3.1294868   -4.4582358 
H    -3.0743032   -4.7220665   -2.8532868 
H    -4.3311938   -3.7078076   -3.5867781 
H     1.3045502   -3.3021126   -1.1863303 
C     1.3951648   -5.8235178   -0.1198351 
C     0.3897801   -4.6932780    0.1835659 
C     1.0213634   -3.3161954   -0.1149467 
C     2.3193323   -3.1510066    0.7108091 
C     3.3303810   -4.2608148    0.3738095 
C     2.7206104   -5.6473890    0.6368364 
H     1.5937360   -5.8320507   -1.2099039 
H     0.9366459   -6.7985322    0.1242305 
H     0.0797820   -4.7384468    1.2460664 
H    -0.5154464   -4.8483734   -0.4231960 
H     2.7575806   -2.1483612    0.5602042 
H     2.0792834   -3.2257598    1.7849971 
H     3.6308388   -4.1821387   -0.6894479 
H     4.2487989   -4.1213371    0.9716123 
H     2.5387584   -5.7600672    1.7239832 
H     3.4321402   -6.4428286    0.3525331 
H    -1.1870259   -2.6074716    1.9975417 
C     0.4141885   -1.3069998    2.6830673 
H    -0.0013332   -0.8439162    3.5892692 
H     0.9668157   -2.2123442    2.9731279 
H     1.1262312   -0.5937610    2.2337016 
