112
Energy =
C     2.3705650    2.5454903    0.2588338 
C     1.1732311    3.2040613    0.6381262 
C     0.4711706    2.8274839    1.8127180 
H     0.7290261    3.9316782   -0.0527839 
Pd    0.6318051    1.0823391    0.3540717 
P    -1.2297396   -0.2447776    0.9024373 
P     1.6017676   -0.4985156   -1.0577419 
H     2.9508930    2.0578180    1.0570542 
H     1.0580526    2.3073905    2.5845646 
C     4.6829340    3.4903918   -3.2459338 
C     5.3124258    3.0843063   -2.0602353 
C     4.5473129    2.7705315   -0.9295182 
C     3.1384735    2.8728747   -0.9573054 
C     2.5202263    3.3016727   -2.1539644 
C     3.2824305    3.5991632   -3.2872075 
H     5.2788954    3.7247854   -4.1339840 
H     6.4038526    3.0057493   -2.0158762 
H     5.0427539    2.4429599   -0.0096726 
H     1.4295640    3.3773606   -2.2036980 
H     2.7826064    3.9096231   -4.2104854 
C    -3.0586649    4.7227727    3.3946907 
C    -2.3265905    3.8066080    4.1651686 
C    -1.1826678    3.1993882    3.6341946 
C    -0.7505961    3.4791012    2.3152331 
C    -1.5028750    4.4012014    1.5506046 
C    -2.6352564    5.0218120    2.0890735 
H    -3.9480365    5.2073846    3.8097928 
H    -2.6403458    3.5743067    5.1881335 
H    -0.6043290    2.5017411    4.2489423 
H    -1.2020232    4.6414681    0.5259869 
H    -3.1946841    5.7435060    1.4849518 
Fe    0.0735667   -3.4969391   -2.2470918 
C     0.8683305   -2.1632599   -0.9323206 
C    -0.5291367   -2.4385569   -0.6290583 
C    -0.6382280   -3.8549742   -0.3805400 
C     0.6552478   -4.4521369   -0.5458672 
C     1.5846090   -3.4213139   -0.8979364 
C    -1.3718900   -3.3366422   -3.6951049 
C    -0.1751707   -2.6664167   -4.1076713 
C     0.8931920   -3.6269441   -4.1132466 
C     0.3518421   -4.8924028   -3.7050670 
C    -1.0482339   -4.7122131   -3.4424188 
C     3.3357847   -0.7756918   -0.5298736 
C     3.5267519   -1.4020057    0.7246129 
C     4.8159180   -1.5837083    1.2356403 
C     5.9322758   -1.1388313    0.5060251 
C     5.7477103   -0.5016389   -0.7271078 
C     4.4558188   -0.3092253   -1.2434579 
C     1.5783703   -0.0238572   -2.8256711 
C     0.5860956    0.8846296   -3.2440766 
C     0.4684226    1.2317751   -4.5973307 
C     1.3540927    0.6865083   -5.5389107 
C     2.3420859   -0.2232431   -5.1281782 
C     2.4482682   -0.5889815   -3.7799528 
C    -1.6335090   -1.4124901   -0.5406168 
H    -1.5572401   -4.3976594   -0.1548158 
H     0.8825398   -5.5162647   -0.4607282 
H     2.6509444   -3.5478042   -1.0903019 
H    -2.3565360   -2.8774269   -3.5916894 
H    -0.0927751   -1.6105886   -4.3661357 
H     1.9324936   -3.4321515   -4.3797177 
H     0.9105228   -5.8229526   -3.5893003 
H    -1.7390259   -5.4815389   -3.0923005 
H     2.6606392   -1.7550059    1.2962864 
H     4.3310828    0.2177027   -2.1921175 
H    -0.0928546    1.3187512   -2.4993055 
H     3.1976250   -1.3257417   -3.4751105 
H    -1.5450957   -0.7438639   -1.4168854 
C    -3.0352671   -2.0475063   -0.5578129 
H    -3.0991749   -2.7362773   -1.4171955 
H    -3.2488077   -2.6247429    0.3542702 
H    -3.8218682   -1.2868560   -0.6726760 
H     4.9518489   -2.0755706    2.2043498 
H     6.6104341   -0.1381153   -1.2949782 
H    -0.3087728    1.9345123   -4.9150508 
H     3.0250546   -0.6597088   -5.8642397 
H     6.9416138   -1.2862608    0.9036633 
H     1.2707839    0.9631637   -6.5949191 
H    -2.3238580    1.5944813    1.9083765 
C    -5.0645620    1.1813322    2.1791601 
C    -3.9233845    0.1636547    1.9899570 
C    -2.7344136    0.8097288    1.2444547 
C    -3.1534592    1.5084364   -0.0747931 
C    -4.3412444    2.4652559    0.1301053 
C    -5.5166566    1.7719584    0.8352116 
H    -4.7138425    1.9996010    2.8383326 
H    -5.9092073    0.6915207    2.6958801 
H    -4.3063997   -0.7115343    1.4373417 
H    -3.5877839   -0.2012894    2.9755401 
H    -2.2832959    2.0577770   -0.4854463 
H    -3.4360326    0.7512672   -0.8299609 
H    -4.0096046    3.3203133    0.7450360 
H    -4.6545760    2.8732545   -0.8478987 
H    -5.9162618    0.9622005    0.1921037 
H    -6.3427811    2.4888949    0.9888336 
H     0.1577865   -1.7927631    1.9966944 
C    -1.1348003   -3.3384224    3.8697536 
C    -1.7392165   -2.4893424    2.7346965 
C    -0.7850123   -1.3334292    2.3602754 
C    -0.4407839   -0.4688729    3.5935060 
C     0.1388010   -1.3270385    4.7320723 
C    -0.8025884   -2.4836981    5.1027114 
H    -0.2121931   -3.8283049    3.5000151 
H    -1.8375266   -4.1479996    4.1366003 
H    -2.7148897   -2.0870132    3.0580813 
H    -1.9241608   -3.1286753    1.8580949 
H     0.2791227    0.3174326    3.3058920 
H    -1.3547842    0.0463914    3.9470211 
H     1.1160055   -1.7378339    4.4086685 
H     0.3392697   -0.6898384    5.6122754 
H    -1.7404138   -2.0705045    5.5238926 
H    -0.3498091   -3.1081511    5.8932752 
