142
Energy =
C     3.2641156    1.1442850   -1.7547409 
C     3.3214123    1.7385076   -0.4810440 
C     3.5767885    0.9238139    0.6718557 
H     3.0947578    2.8055598   -0.3676927 
Pd    1.6144546    0.3513250   -0.1940812 
P     1.1089250   -1.3502748    1.3244270 
P    -0.3289507    0.4423521   -1.5320219 
H     3.6199783    0.1049243   -1.8265704 
H     4.1956563    0.0315301    0.5110629 
C     2.7271245    2.9785563   -5.5883002 
C     2.9959682    1.6048929   -5.4809751 
C     3.1678348    1.0260356   -4.2199524 
C     3.0676239    1.8063585   -3.0407954 
C     2.8181031    3.1937015   -3.1700676 
C     2.6460447    3.7705969   -4.4303935 
H     2.5878290    3.4357793   -6.5732129 
H     3.0793153    0.9879434   -6.3815764 
H     3.3889354   -0.0439236   -4.1346894 
H     2.7599179    3.8262561   -2.2807912 
H     2.4365049    4.8413584   -4.5140666 
C     3.4818953    2.2687861    4.7571340 
C     2.8804739    3.0493098    3.7555341 
C     2.9110067    2.6324452    2.4214979 
C     3.5630296    1.4296488    2.0546471 
C     4.1918117    0.6731664    3.0710584 
C     4.1421276    1.0805865    4.4092755 
H     3.4341930    2.5886483    5.8025682 
H     2.3632031    3.9754190    4.0219841 
H     2.4038466    3.2374798    1.6616301 
H     4.7283505   -0.2421209    2.8014079 
H     4.6219550    0.4666777    5.1774517 
Fe   -2.6506724   -3.9929625   -0.1008720 
C    -1.2938065   -2.5334651    0.2901189 
C    -1.8779779   -2.3356608   -1.0335712 
C    -3.3058133   -2.2267090   -0.8626689 
H    -4.0166491   -2.0747474   -1.6753960 
C    -3.6120013   -2.3165812    0.5300543 
H    -4.6079146   -2.2704607    0.9730902 
C    -2.3851086   -2.5147401    1.2409873 
H    -2.3074698   -2.6633720    2.3179903 
C    -1.8489469   -5.7916426    0.4565087 
H    -0.9062532   -5.9483871    0.9853570 
C    -2.0188245   -5.7457065   -0.9680719 
H    -1.2296063   -5.8813948   -1.7100914 
C    -3.4099158   -5.5145889   -1.2427941 
H    -3.8682787   -5.4227246   -2.2292931 
C    -4.0988156   -5.4260587    0.0131783 
H    -5.1652318   -5.2362689    0.1477649 
C    -3.1347949   -5.5971644    1.0632595 
H    -3.3407402   -5.5593943    2.1347806 
C    -1.1925931   -2.1631058   -2.3460047 
C    -0.4590204   -0.9885766   -2.6763494 
C     0.2828017   -0.9489493   -3.8773094 
H     0.9020519   -0.0755018   -4.0984748 
C     0.2336509   -2.0050320   -4.7943769 
H     0.8133401   -1.9485237   -5.7216316 
C    -0.5727797   -3.1186507   -4.5221231 
H    -0.6455265   -3.9406268   -5.2416609 
C    -1.2645586   -3.1908956   -3.3075066 
H    -1.8647280   -4.0702387   -3.0631152 
C    -0.3023613    1.9982899   -2.5218458 
C    -0.6167528    2.1330392   -3.8825963 
H    -0.8254333    1.2513395   -4.4958911 
C    -0.6632537    3.3999618   -4.4951855 
C    -0.4203196    4.5394336   -3.6979567 
C    -0.1157574    4.4359602   -2.3205652 
C    -0.0544573    3.1567691   -1.7541667 
H     0.1852638    3.0564555   -0.6865751 
C    -1.9779781    0.6687486   -0.7538624 
C    -3.0940471    0.9023240   -1.5843462 
H    -2.9752533    0.9135257   -2.6738777 
C    -4.3648849    1.1098685   -1.0354591 
C    -4.4994497    1.0885432    0.3758934 
C    -3.4006696    0.8505787    1.2277105 
C    -2.1387898    0.6582557    0.6353241 
H    -1.2794541    0.4529538    1.2760146 
C     2.6736732   -2.1445086    1.9089827 
C     2.9592275   -2.4226732    3.2584433 
H     2.2282493   -2.2178500    4.0441302 
C     4.2111247   -2.9420312    3.6212207 
C     5.1968307   -3.1916479    2.6547922 
H     6.1750785   -3.5837001    2.9441194 
C     4.9118503   -2.9129221    1.3117531 
C     3.6634078   -2.3972171    0.9427697 
H     3.4735393   -2.1605882   -0.1093192 
C     0.2852439   -0.8835744    2.9013990 
C     0.2308173    0.4786121    3.2547394 
H     0.6817770    1.2305448    2.6008073 
C    -0.4221970    0.8771563    4.4270645 
C    -1.0258511   -0.0731677    5.2658859 
H    -1.5627666    0.2387860    6.1653962 
C    -0.9589719   -1.4276067    4.9213009 
C    -0.2987029   -1.8357745    3.7521822 
H    -0.2561439   -2.9037050    3.5181053 
C     0.1412234   -2.8468179    0.6478135 
H     0.1189513   -3.5522154    1.4980033 
C     0.9459434   -3.4938986   -0.4954157 
H     0.3043325   -4.2415286   -0.9866720 
H     1.2443633   -2.7564323   -1.2603021 
H     1.8470058   -4.0019253   -0.1180396 
C    -0.5278679    2.3453737    4.7823002 
F    -1.7642012    2.6398419    5.2556085 
F     0.3589643    2.7006943    5.7401065 
F    -0.3068020    3.1380655    3.7054361 
C    -1.6722561   -2.4817444    5.7393893 
F    -2.7664482   -2.9348322    5.0637823 
F    -0.8763528   -3.5534397    5.9591305 
F    -2.0917746   -2.0140789    6.9290518 
C     4.5415788   -3.1334262    5.0867679 
F     3.4293106   -3.3265347    5.8305118 
F     5.1696248   -2.0319427    5.5819986 
F     5.3660346   -4.1824983    5.2807099 
C     5.9398233   -3.1110416    0.2200877 
F     5.5173684   -4.0182463   -0.6921796 
F     6.1366778   -1.9419606   -0.4550847 
F     7.1295921   -3.5174152    0.6969984 
C    -0.9210226    3.5362883   -5.9770915 
H    -1.9968150    3.6806995   -6.1904555 
H    -0.3819961    4.4084094   -6.3822898 
H    -0.5949888    2.6322467   -6.5169477 
C     0.2001714    5.6786039   -1.5237407 
H     0.4941821    5.4254430   -0.4919474 
H     1.0177537    6.2487233   -1.9997124 
H    -0.6685696    6.3587719   -1.4733399 
C    -5.5854886    1.3200020   -1.8992165 
H    -6.0194251    2.3241036   -1.7428892 
H    -5.3387763    1.2165320   -2.9681639 
H    -6.3746770    0.5926870   -1.6409076 
C    -3.5850286    0.7234960    2.7214544 
H    -2.9547411   -0.0908273    3.1166623 
H    -3.3018060    1.6482355    3.2564672 
H    -4.6358215    0.4977361    2.9624075 
O    -0.3525852    5.7886352   -4.2783891 
O    -5.7677561    1.2188221    0.8998916 
C    -1.6013046    6.4661833   -4.4829523 
H    -1.3534206    7.4467817   -4.9156109 
H    -2.2551563    5.9117126   -5.1816448 
H    -2.1374541    6.6092077   -3.5257020 
C    -6.1010450    2.5151910    1.4166728 
H    -6.0334010    3.2872647    0.6266399 
H    -7.1384216    2.4479552    1.7769230 
H    -5.4381355    2.8014250    2.2551507 
