132
Energy =
C     2.1624344   -1.4962854   -2.4681363 
C     2.2552208   -0.0849391   -2.4804700 
C     2.7844099    0.6364525   -1.3718252 
H     1.8020712    0.4717824   -3.3113269 
Pd    0.9697341   -0.5117665   -0.7552231 
P     0.4858199    0.6971364    1.1767459 
P    -1.0412422   -1.7577258   -0.5236516 
H     2.8398138   -2.0336443   -1.7862050 
H     3.5368160    0.1273176   -0.7520164 
C     0.7818926   -3.8588469   -5.7931363 
C     0.2336771   -2.5840763   -5.5704289 
C     0.6653071   -1.8097045   -4.4888452 
C     1.6496052   -2.2952976   -3.5969756 
C     2.1875610   -3.5810559   -3.8308604 
C     1.7647127   -4.3509856   -4.9218760 
H     0.4459337   -4.4621169   -6.6426144 
H    -0.5324281   -2.1913251   -6.2473140 
H     0.2300309   -0.8190357   -4.3276425 
H     2.9546305   -3.9737615   -3.1537819 
H     2.2020407   -5.3406106   -5.0891595 
C     2.9832450    4.9362497   -1.2130638 
C     1.9288381    4.3117390   -1.9010805 
C     1.8537560    2.9160503   -1.9583250 
C     2.8327968    2.1123557   -1.3288482 
C     3.8886257    2.7545105   -0.6487458 
C     3.9636988    4.1518383   -0.5893673 
H     3.0367700    6.0285426   -1.1622101 
H     1.1601299    4.9178027   -2.3929157 
H     1.0178746    2.4409678   -2.4852336 
H     4.6577858    2.1489093   -0.1592793 
H     4.7842459    4.6258647   -0.0410789 
Fe    1.4278828   -2.1818383    2.7794011 
C     0.2470304   -0.5413657    2.4757351 
C    -0.5105405   -1.7764582    2.3313216 
C    -0.4047082   -2.4746687    3.5898963 
C     0.4098074   -1.7094226    4.4844387 
C     0.8201557   -0.5210571    3.8032820 
C     2.2840387   -3.2330685    1.2391814 
C     3.1492344   -2.1655170    1.6449451 
C     3.4560143   -2.3383949    3.0352036 
C     2.7829025   -3.5233586    3.4876751 
C     2.0573586   -4.0764860    2.3771765 
C    -1.0518290    1.6902991    1.1406247 
C    -1.2073981    2.6595716    0.1292555 
C    -2.3548619    3.4641817    0.0703996 
C    -3.3810784    3.2354386    1.0184799 
C    -3.2494501    2.2740242    2.0472939 
C    -2.0620433    1.5207680    2.1028807 
C     1.7516578    1.8487236    1.8426201 
C     1.5309877    3.2341933    1.9141048 
C     2.5361410    4.1093788    2.3635651 
C     3.7732499    3.5594003    2.7635233 
C     4.0218124    2.1678616    2.7066090 
C     3.0030718    1.3311025    2.2324107 
C    -1.4629734   -2.2601251    1.2541135 
H    -0.8582896   -3.4444831    3.8072453 
H     0.6985844   -1.9981606    5.4966314 
H     1.4581918    0.2677711    4.2029437 
H     1.8719779   -3.3679674    0.2417693 
H     3.5064939   -1.3645355    0.9968877 
H     4.0775880   -1.6816656    3.6465888 
H     2.8010502   -3.9216430    4.5037574 
H     1.4327384   -4.9714607    2.4028017 
H    -0.4124404    2.8055577   -0.6096523 
H    -1.9261833    0.7984187    2.9152174 
H     0.5736458    3.6596881    1.6006454 
H     3.1748874    0.2546974    2.1792008 
H    -1.3317726   -3.3572888    1.2226559 
H    -1.2397841   -3.0580137   -2.5261019 
H    -2.3990781    0.2029768   -0.3747154 
C    -4.6903446    0.1294316   -1.8654969 
C    -3.7879716   -1.0522554   -1.4617089 
C    -2.3523202   -0.5585503   -1.1766266 
C    -1.8002721    0.1325959   -2.4485655 
C    -2.7069943    1.2809202   -2.9225581 
C    -4.1600270    0.8283231   -3.1257389 
H    -4.7315663    0.8524250   -1.0272660 
H    -5.7215122   -0.2330174   -2.0268856 
H    -3.7657122   -1.7781328   -2.2957852 
H    -4.2227225   -1.5672772   -0.5924688 
H    -0.7793080    0.5148942   -2.2467813 
H    -1.7068526   -0.6232628   -3.2518440 
H    -2.6814547    2.0788532   -2.1603082 
H    -2.2979427    1.7133334   -3.8539990 
H    -4.2150226    0.1251503   -3.9800902 
H    -4.7968282    1.6928195   -3.3881781 
C    -2.6507767   -5.4222512   -2.0495903 
C    -2.5555443   -4.1569450   -1.1743873 
C    -1.2494464   -3.3756495   -1.4639302 
C    -0.0419946   -4.3084560   -1.2331620 
C    -0.1338436   -5.5820631   -2.0914992 
C    -1.4420738   -6.3445275   -1.8378891 
H    -2.7051413   -5.1216063   -3.1143502 
H    -3.5923017   -5.9532673   -1.8211126 
H    -2.5634238   -4.4654845   -0.1107530 
H    -3.4452475   -3.5320332   -1.3313223 
H     0.8922878   -3.7699830   -1.4582090 
H    -0.0067922   -4.5949613   -0.1629271 
H    -0.0766294   -5.2936259   -3.1571461 
H     0.7418706   -6.2254052   -1.8901391 
H    -1.4527881   -6.7273713   -0.7979125 
H    -1.5079082   -7.2261036   -2.5001103 
C    -2.9246796   -1.9802222    1.6773241 
H    -3.1729812   -0.9095180    1.6004138 
H    -3.6358828   -2.5545318    1.0636363 
H    -3.0625321   -2.2830986    2.7293050 
C    -2.5062808    4.5658853   -0.9517437 
H    -3.3548627    4.3770148   -1.6336456 
H    -2.7121424    5.5283098   -0.4523284 
H    -1.5937491    4.6669538   -1.5610110 
C    -4.3443443    2.0877567    3.0711214 
H    -4.8675005    3.0396540    3.2573414 
H    -5.0984755    1.3575058    2.7204524 
H    -3.9361059    1.7078860    4.0218783 
O    -4.4943101    4.0454967    0.9779161 
C    -5.6291433    3.5208044    0.2767674 
H    -6.4183137    4.2838742    0.3477897 
H    -5.3912249    3.3363043   -0.7886845 
H    -5.9876681    2.5785486    0.7324933 
C     2.3145681    5.6031901    2.3676035 
H     1.9284029    5.9532069    3.3432987 
H     3.2609424    6.1340242    2.1732245 
H     1.5803040    5.8901652    1.5973551 
C     5.3760498    1.6272306    3.0995429 
H     5.5606294    1.7490751    4.1824348 
H     5.4618773    0.5550234    2.8579131 
H     6.1797073    2.1766954    2.5794896 
O     4.8193488    4.3865333    3.1118298 
C     4.8295588    4.8698814    4.4628419 
H     5.7360288    5.4850490    4.5638715 
H     3.9397862    5.4895061    4.6807560 
H     4.8697185    4.0318633    5.1844335 
