124
Energy =
C    -0.6701148    2.4380089   -2.2006876 
C    -1.4143634    1.4524995   -2.9049003 
C    -2.5637077    0.8644584   -2.3267324 
H    -1.0319921    1.0679580   -3.8581834 
Pd   -0.6558468    0.5060168   -1.0476333 
P    -1.1754163   -1.4621210    0.1101087 
P     1.1578688    1.1269714    0.3409345 
H    -1.2263570    3.0142802   -1.4455645 
H    -3.0203595    1.4065337   -1.4854596 
C     2.8734903    4.4465051   -3.6052529 
C     2.0760442    5.0154804   -2.6013728 
C     0.9178607    4.3577273   -2.1683488 
C     0.5403578    3.1070852   -2.7123377 
C     1.3516441    2.5509478   -3.7286101 
C     2.4973619    3.2176990   -4.1742972 
H     3.7762554    4.9600027   -3.9509840 
H     2.3486771    5.9810441   -2.1629044 
H     0.2869203    4.8236930   -1.4027419 
H     1.0928827    1.5814835   -4.1669976 
H     3.1071807    2.7734878   -4.9676712 
C    -5.3668924   -1.7599308   -4.2771997 
C    -5.5927128   -1.3110706   -2.9670090 
C    -4.6606112   -0.4750076   -2.3414435 
C    -3.4760785   -0.0749337   -3.0032023 
C    -3.2609567   -0.5430934   -4.3214078 
C    -4.1974318   -1.3697164   -4.9503207 
H    -6.0984911   -2.4052916   -4.7736386 
H    -6.5049886   -1.6019098   -2.4358688 
H    -4.8552263   -0.1074510   -1.3286110 
H    -2.3626019   -0.2466600   -4.8720131 
H    -4.0154798   -1.7110670   -5.9744267 
Fe    2.8189869   -1.2675177    2.6851548 
C     1.4590038    0.0054662    1.7575139 
C     0.9393742   -1.3524547    1.8863026 
C     0.9277199   -1.6834059    3.2885060 
C     1.4607179   -0.5793823    4.0290448 
C     1.8159878    0.4448092    3.0943071 
C     3.8769723   -2.9502959    2.1552834 
C     4.4888144   -1.7831737    1.5907075 
C     4.8418234   -0.9001453    2.6680069 
C     4.4434223   -1.5211533    3.8957884 
C     3.8448241   -2.7869090    3.5793654 
C     0.3882022   -2.2446942    0.8001175 
H     0.6076981   -2.6398705    3.7071397 
H     1.6182296   -0.5454467    5.1087033 
H     2.2629586    1.4063621    3.3469952 
H     3.5014363   -3.8154782    1.6064541 
H     4.6649563   -1.6002132    0.5298882 
H     5.3337893    0.0689499    2.5756092 
H     4.5540587   -1.0964374    4.8951959 
H     3.4199673   -3.4921135    4.2962784 
H     0.1626773    3.2456873    0.1750286 
C     0.7427059    5.0127097    2.1770557 
C     1.4866965    3.7244705    1.7693236 
C     0.5155997    2.7370781    1.0898763 
C    -0.7274598    2.4496769    1.9609990 
C    -1.4378667    3.7487067    2.3782242 
C    -0.4696781    4.7179861    3.0733314 
H     0.4012689    5.5356812    1.2612398 
H     1.4466228    5.6962793    2.6843958 
H     1.9424585    3.2713955    2.6679338 
H     2.3064742    3.9830456    1.0787512 
H    -1.4235679    1.8028983    1.3954770 
H    -0.4258846    1.8837882    2.8625381 
H    -1.8601856    4.2362792    1.4768303 
H    -2.2923029    3.5085914    3.0365528 
H    -0.1218664    4.2684294    4.0244829 
H    -0.9882149    5.6564426    3.3382473 
H     2.5477208    2.4514450   -1.0766604 
C     4.4219652    0.7275428   -2.2925977 
C     3.1221261    0.4105663   -1.5340277 
C     2.7698524    1.5203499   -0.5201517 
C     3.9462284    1.7541866    0.4486757 
C     5.2450520    2.0727531   -0.3151732 
C     5.5934715    0.9728078   -1.3290527 
H     4.2633909    1.6316024   -2.9091903 
H     4.6556105   -0.0986647   -2.9884708 
H     3.2459028   -0.5394917   -0.9824265 
H     2.2829524    0.2674637   -2.2396313 
H     3.7256600    2.5664857    1.1580567 
H     4.0687809    0.8394660    1.0510792 
H     5.1233888    3.0365644   -0.8474388 
H     6.0708445    2.2113491    0.4064859 
H     5.8295841    0.0362580   -0.7861067 
H     6.5033387    1.2441080   -1.8934368 
H    -1.4848584   -0.4099049    2.1823380 
C    -3.1655255   -1.7000099    3.8767991 
C    -2.5525010   -2.2405804    2.5709589 
C    -2.1884125   -1.0690470    1.6341157 
C    -3.4483676   -0.2385358    1.3120528 
C    -4.0926241    0.2945537    2.6052543 
C    -4.4089532   -0.8410436    3.5926060 
H    -2.4043953   -1.0934517    4.4064372 
H    -3.4230061   -2.5418952    4.5442452 
H    -3.2918229   -2.8938527    2.0711776 
H    -1.6686375   -2.8623712    2.7934324 
H    -3.1912415    0.5998922    0.6396108 
H    -4.1751933   -0.8735784    0.7695158 
H    -3.3933000    1.0108682    3.0799940 
H    -5.0088089    0.8615585    2.3606683 
H    -5.2020631   -1.4849069    3.1637063 
H    -4.8140706   -0.4274268    4.5331666 
H    -3.0818472   -2.4274207   -0.9301968 
C    -2.8754873   -5.1831554   -1.1027873 
C    -2.0313355   -4.2096032   -0.2567482 
C    -2.0363862   -2.7954909   -0.8840160 
C    -1.5060305   -2.8637278   -2.3361311 
C    -2.3570694   -3.8295743   -3.1775530 
C    -2.3873460   -5.2358832   -2.5588304 
H    -3.9331425   -4.8543925   -1.0800385 
H    -2.8458042   -6.1882960   -0.6449736 
H    -0.9897192   -4.5832923   -0.2165293 
H    -2.4044453   -4.1929188    0.7790975 
H    -1.4995744   -1.8564507   -2.7854322 
H    -0.4588292   -3.2159750   -2.3296687 
H    -3.3867493   -3.4326283   -3.2426310 
H    -1.9671023   -3.8646630   -4.2107105 
H    -1.3693068   -5.6728511   -2.5862486 
H    -3.0337660   -5.9044943   -3.1548951 
H     0.0903344   -3.1906038    1.2848039 
C     1.3561216   -2.5570066   -0.3575386 
H     1.0490347   -3.4683732   -0.8950074 
H     1.3943475   -1.7285259   -1.0839531 
H     2.3686788   -2.7094049    0.0421036 
