106
Energy =
C    -1.6221469   -1.5011128   -1.9554663 
C    -0.4320545   -1.7470094   -2.6870721 
C     0.5755825   -2.6193101   -2.1834290 
H    -0.2079762   -1.1252666   -3.5620464 
Pd    0.2151350   -0.9435263   -0.7497786 
P     2.2899400   -0.9974349    0.2472627 
P    -0.5873317    0.9421485    0.3642954 
H    -1.9301021   -2.2756956   -1.2358805 
H     0.2474067   -3.4430226   -1.5325598 
C    -4.8270923    1.1416284   -3.0692486 
C    -4.9570613    0.2790413   -1.9710653 
C    -3.9004389   -0.5674052   -1.6166798 
C    -2.6894431   -0.5653742   -2.3466627 
C    -2.5650215    0.3281088   -3.4356236 
C    -3.6251578    1.1645225   -3.7954727 
H    -5.6553356    1.7970744   -3.3568651 
H    -5.8880493    0.2558297   -1.3952230 
H    -4.0135337   -1.2479556   -0.7663199 
H    -1.6351057    0.3725610   -4.0100351 
H    -3.5117933    1.8441659   -4.6458201 
C     4.4698158   -3.1932332   -3.9304020 
C     3.7123631   -2.0611129   -4.2732891 
C     2.4506267   -1.8583514   -3.7076964 
C     1.9050135   -2.7966627   -2.8002372 
C     2.6795000   -3.9296621   -2.4634559 
C     3.9503008   -4.1236761   -3.0189760 
H     5.4606144   -3.3460354   -4.3704669 
H     4.1154202   -1.3246573   -4.9754632 
H     1.8921671   -0.9511847   -3.9607114 
H     2.2763699   -4.6664124   -1.7611957 
H     4.5315881   -5.0106090   -2.7459387 
Fe    1.6443966   -0.2826479    3.5233866 
C     2.5181252    0.0102155    1.7300211 
C     1.7310063    1.1797678    2.1007160 
C     2.2672411    1.6484560    3.3561033 
C     3.3549283    0.8023935    3.7473259 
C     3.5161045   -0.2118240    2.7521613 
C     1.3600120   -2.2238937    4.0677616 
C     1.6036288   -1.4063316    5.2222167 
C     0.5900170   -0.3908614    5.2712544 
C    -0.2855131   -0.5800595    4.1518219 
C     0.1916269   -1.7114520    3.4056764 
C     0.7668319    1.9532489    1.2260417 
H     1.8997571    2.5014207    3.9272479 
H     3.9355501    0.8944305    4.6670014 
H     4.2438362   -1.0241485    2.7599314 
H     1.9671245   -3.0688417    3.7389797 
H     2.4336215   -1.5173310    5.9224795 
H     0.5132023    0.4018289    6.0177244 
H    -1.1522145    0.0340910    3.9086638 
H    -0.2474949   -2.1056053    2.4887540 
H     1.3453166    2.2554438    0.3294602 
C     0.2459484    3.2343930    1.8952597 
H     1.0910893    3.9109288    2.1081413 
H    -0.4532699    3.7705194    1.2319130 
H    -0.2604209    3.0096648    2.8479170 
C     3.5633458   -0.4320528   -0.9119381 
C     4.8606126   -0.7793939   -1.2178661 
C     5.3135212    0.1640006   -2.1955112 
C     4.2685749    1.0249197   -2.4167980 
H     5.4123044   -1.6155823   -0.7926809 
H     6.2916790    0.1950255   -2.6757503 
H     4.1298304    1.8942251   -3.0583073 
O     3.1946101    0.6785771   -1.6484831 
C     2.8081933   -2.6594810    0.7254395 
C     2.0602657   -3.7926606    0.9663683 
C     2.9758316   -4.8094564    1.3888458 
C     4.2202143   -4.2290252    1.3764448 
H     0.9793204   -3.8783340    0.8562606 
H     2.7434186   -5.8391320    1.6607688 
H     5.2224363   -4.5895015    1.6046400 
O     4.1351546   -2.9251561    0.9839474 
C    -1.7366832    3.9664251   -2.9446352 
C    -0.4839297    3.3209495   -2.9700173 
C    -0.1861625    2.4057078   -1.9481837 
C    -1.1175691    2.1452246   -0.9183961 
C    -2.3696807    2.7780824   -0.9329637 
C    -2.6897518    3.7045277   -1.9455870 
H    -1.9835438    4.6799070   -3.7405549 
H     0.7773223    1.8786693   -1.9608646 
H    -3.1178359    2.5398866   -0.1713545 
C    -4.1554210   -0.0039729    3.1574361 
C    -3.7450601    1.3416068    3.0582757 
C    -2.6664079    1.6558414    2.2125487 
C    -2.0104435    0.6456857    1.4755150 
C    -2.4609869   -0.6823145    1.5825928 
C    -3.5309656   -1.0294992    2.4272387 
H    -4.9887388   -0.2568168    3.8240190 
H    -2.3520534    2.6985021    2.1288669 
H    -1.9516146   -1.4621413    1.0046986 
C     0.5080210    3.6022989   -4.0773969 
H     0.8433288    4.6550508   -4.0509926 
H     1.3998747    2.9587823   -3.9921721 
H     0.0552410    3.4321407   -5.0707443 
C    -4.0292715    4.4062065   -1.9455676 
H    -4.7895348    3.8168303   -1.4067860 
H    -3.9542526    5.3922659   -1.4494787 
H    -4.3909051    4.5823938   -2.9726723 
C    -4.4693957    2.4255117    3.8255448 
H    -4.7248005    2.0921422    4.8457928 
H    -3.8633830    3.3433231    3.9011240 
H    -5.4178449    2.6901808    3.3215145 
C    -3.9541589   -2.4740807    2.5695486 
H    -4.9650104   -2.5621828    2.9993382 
H    -3.9453721   -2.9936438    1.5952404 
H    -3.2569748   -3.0146394    3.2372550 
