124
Energy =
C     1.6552161    1.3891531   -2.5486501 
C     2.6178592    0.4922495   -1.9887164 
C     2.4283478   -0.9079564   -2.0635276 
H     3.4160717    0.8934799   -1.3519766 
Pd    0.6886949    0.1238639   -1.0061400 
P     0.2465380   -1.3889153    0.6884528 
P    -1.1639983    1.4910779   -0.6736298 
H     1.0935971    1.0368868   -3.4261924 
H     1.7547308   -1.2755228   -2.8538471 
C     1.8600899    5.6709572   -2.2182187 
C     1.1221052    5.0678756   -3.2469210 
C     1.0417427    3.6718481   -3.3283481 
C     1.7096558    2.8541607   -2.3893153 
C     2.4138585    3.4764300   -1.3308852 
C     2.4916595    4.8697487   -1.2524240 
H     1.9312945    6.7616108   -2.1585962 
H     0.6140538    5.6860094   -3.9945672 
H     0.4699604    3.2023184   -4.1367205 
H     2.8990978    2.8701379   -0.5580845 
H     3.0436503    5.3353784   -0.4299355 
C     4.9575299   -3.9952871   -0.4636019 
C     5.2670786   -2.6480090   -0.2149045 
C     4.4479186   -1.6279128   -0.7094226 
C     3.3042648   -1.9373385   -1.4821949 
C     3.0046547   -3.2993057   -1.7255369 
C     3.8184575   -4.3172667   -1.2159266 
H     5.5975581   -4.7869240   -0.0634477 
H     6.1526900   -2.3938218    0.3759405 
H     4.7068725   -0.5866276   -0.4953174 
H     2.1316516   -3.5595968   -2.3332442 
H     3.5694483   -5.3644125   -1.4159740 
Fe   -2.5422495   -1.2034474    2.9848965 
C    -0.8440815   -0.7260142    1.9814201 
C    -1.8906916    0.2693159    1.7617375 
C    -2.2362233    0.8072368    3.0524262 
C    -1.4511724    0.1504902    4.0555270 
C    -0.5975323   -0.7980245    3.4088752 
C    -2.9660181   -3.1329704    3.5338688 
C    -3.5898033   -2.1954791    4.4237254 
C    -4.4624288   -1.3587748    3.6485454 
C    -4.3781074   -1.7798194    2.2787965 
C    -3.4570883   -2.8741382    2.2085666 
C     1.8297753   -1.6101510    1.5998579 
C     2.4196933   -2.8396734    1.9356231 
C     3.6577877   -2.8582117    2.5947971 
C     4.3315827   -1.6663137    2.9019149 
C     3.7518797   -0.4449662    2.5379165 
C     2.5058193   -0.4139883    1.9011746 
C    -0.3169016   -3.0561464    0.1957759 
C    -0.4976531   -3.3089095   -1.1709236 
C    -0.9284781   -4.5713201   -1.6061616 
C    -1.1919988   -5.5868490   -0.6791074 
C    -1.0252582   -5.3249693    0.6921563 
C    -0.5883594   -4.0695656    1.1319481 
C    -2.4793102    0.6791378    0.4355394 
H    -2.9976002    1.5638159    3.2442042 
H    -1.5202621    0.3186296    5.1316318 
H     0.1338926   -1.4469510    3.8936328 
H    -2.2661711   -3.9176910    3.8245237 
H    -3.4185769   -2.1202433    5.4990375 
H    -5.0661601   -0.5337673    4.0313109 
H    -4.9167272   -1.3432487    1.4356593 
H    -3.1848701   -3.4183956    1.3041352 
H     1.9467462   -3.7878291    1.6700346 
H     2.0712891    0.5499174    1.6116484 
H    -0.3034915   -2.5132790   -1.8980931 
H    -0.4799669   -3.8767397    2.2026973 
H    -2.7167324   -0.2331189   -0.1439307 
C    -3.7377961    1.5462150    0.5801310 
H    -4.4495712    1.0542637    1.2650578 
H    -3.4908159    2.5389475    0.9944213 
H    -4.2369794    1.6859541   -0.3909569 
C     4.2869380   -4.1797607    2.9857948 
F     4.1090453   -4.4359959    4.3014225 
F     3.7543882   -5.2137886    2.2932302 
F     5.6228728   -4.1740965    2.7548708 
C     4.4742895    0.8680650    2.7327088 
F     4.7176130    1.4557403    1.5219061 
F     3.7242844    1.7489002    3.4405639 
F     5.6544539    0.7254083    3.3600632 
C    -1.0729088   -4.7948981   -3.0957645 
F    -1.6134224   -5.9892626   -3.3903139 
F    -1.8509501   -3.8298678   -3.6545398 
F     0.1374840   -4.7205985   -3.7128100 
C    -1.4048204   -6.3713233    1.7194123 
F    -1.2522867   -7.6230532    1.2477239 
F    -0.6601749   -6.2472144    2.8452066 
F    -2.7043083   -6.2244793    2.0859062 
H     5.3105481   -1.6909707    3.3871298 
H    -1.5282922   -6.5706220   -1.0164811 
C    -3.4386912    1.8163248   -4.6884384 
C    -2.5352549    0.7640674   -4.4572761 
C    -1.8444483    0.7471007   -3.2318406 
C    -2.0536940    1.7407998   -2.2553071 
C    -2.9883051    2.7674444   -2.5064064 
C    -3.6791089    2.8224057   -3.7302983 
H    -3.9836542    1.8492735   -5.6397217 
H    -1.1344454   -0.0653876   -3.0239297 
H    -3.1992910    3.5250968   -1.7463492 
C    -2.2862864   -0.3101833   -5.4933697 
H    -2.0711558   -1.2837140   -5.0202201 
H    -3.1535797   -0.4340736   -6.1622759 
H    -1.4166598   -0.0482728   -6.1255058 
C    -4.6663493    3.9321138   -4.0170357 
H    -5.6508760    3.5224746   -4.3044744 
H    -4.8080229    4.5863640   -3.1414313 
H    -4.3177806    4.5587567   -4.8580999 
C     0.1690015    5.3236615    1.5284294 
C     0.4090320    4.0512313    2.0837072 
C    -0.0408063    2.9253872    1.3766430 
C    -0.7151699    3.0611743    0.1420144 
C    -0.9122093    4.3411791   -0.4031167 
C    -0.4829741    5.4876548    0.2935950 
H     0.5136630    6.2131354    2.0699343 
H     0.1415221    1.9284570    1.7923959 
H    -1.3719686    4.4620222   -1.3864031 
C     1.1638572    3.8956572    3.3850928 
H     0.8429994    4.6468488    4.1269240 
H     1.0187277    2.8920504    3.8175766 
H     2.2492335    4.0314777    3.2257331 
C    -0.7386617    6.8670270   -0.2706853 
H    -1.6470933    7.3090446    0.1802386 
H     0.0995745    7.5510566   -0.0559180 
H    -0.8876167    6.8329438   -1.3623789 
