112
Energy =
C     1.2461200    0.5240253   -2.9301583 
C     0.6919602    1.8093745   -2.6705139 
C     1.2774736    2.6781342   -1.7201270 
H    -0.2692217    2.0871657   -3.1214197 
Pd    0.6379508    0.7076236   -0.7593777 
P     0.1476375    1.5961517    1.3314452 
P     0.4290244   -1.5274200   -0.1194076 
H     2.3231703    0.4085763   -2.7407547 
H     2.3403126    2.5171451   -1.4816965 
C    -0.3099936   -2.2784595   -5.8093942 
C    -1.1489358   -1.2823890   -5.2821911 
C    -0.6632875   -0.3769695   -4.3331219 
C     0.6840597   -0.4298555   -3.9043403 
C     1.5187901   -1.4315694   -4.4527172 
C     1.0263972   -2.3496924   -5.3885435 
H    -0.6955856   -2.9899612   -6.5464538 
H    -2.1914250   -1.2158796   -5.6101101 
H    -1.3427299    0.3724951   -3.9134920 
H     2.5697154   -1.4776480   -4.1483148 
H     1.6919437   -3.1154962   -5.8002448 
C    -0.1133760    6.6438173   -0.8041423 
C    -1.0405178    5.6498950   -1.1625991 
C    -0.6041456    4.3561350   -1.4621164 
C     0.7676960    4.0212687   -1.3909934 
C     1.6856181    5.0251937   -1.0125990 
C     1.2509614    6.3274412   -0.7366657 
H    -0.4556707    7.6590297   -0.5782603 
H    -2.1088355    5.8853105   -1.2093559 
H    -1.3386522    3.5936230   -1.7369925 
H     2.7499611    4.7779872   -0.9331032 
H     1.9803361    7.0935808   -0.4545961 
Fe   -2.1234516   -1.7127495    2.5001321 
C    -0.3229548   -1.8219109    1.5156841 
C    -0.2428874   -0.9441322    2.6839910 
C    -0.6018325   -1.7406223    3.8355487 
C    -0.9108420   -3.0694808    3.4083771 
C    -0.7558835   -3.1229151    1.9896029 
C    -3.9090635   -2.2987506    1.6870106 
C    -3.9270478   -2.4298311    3.1156774 
C    -3.6796579   -1.1340365    3.6834404 
C    -3.5116016   -0.2017021    2.6072939 
C    -3.6496526   -0.9215593    1.3750639 
C     0.3445500    0.4464700    2.8168685 
H    -0.6576579   -1.3866069    4.8649459 
H    -1.2478422   -3.8864766    4.0487646 
H    -0.9355583   -3.9995147    1.3680761 
H    -4.0651841   -3.1067043    0.9699113 
H    -4.0795367   -3.3556461    3.6733152 
H    -3.6122691   -0.9050199    4.7486650 
H    -3.3193700    0.8652815    2.7087095 
H    -3.5731928   -0.4940538    0.3765484 
H     1.8903262   -3.3847995    0.3630191 
C     4.2644816   -2.3819957    1.4613760 
C     2.8934067   -1.7047113    1.2811771 
C     2.1115303   -2.3296461    0.1074918 
C     2.9437263   -2.2827475   -1.1887532 
C     4.3066050   -2.9734598   -1.0023511 
C     5.0899604   -2.3524416    0.1651660 
H     4.1051299   -3.4331641    1.7715041 
H     4.8147444   -1.8913057    2.2844757 
H     3.0388466   -0.6246694    1.0726235 
H     2.3091686   -1.7853971    2.2142381 
H     2.3912532   -2.7423450   -2.0264338 
H     3.1076545   -1.2217974   -1.4596986 
H     4.1435707   -4.0514479   -0.8072466 
H     4.8879123   -2.9066836   -1.9397463 
H     5.3415438   -1.3020263   -0.0841989 
H     6.0490556   -2.8806830    0.3093635 
H    -0.0342109   -2.1902493   -2.3434452 
C    -2.7407912   -3.0132337   -2.4554749 
C    -1.9594805   -2.2526359   -1.3713598 
C    -0.4523939   -2.5780854   -1.3954395 
C    -0.1841468   -4.0994694   -1.3686476 
C    -0.9545258   -4.7992410   -2.5044878 
C    -2.4626674   -4.5231127   -2.4039942 
H    -2.4469318   -2.6286676   -3.4487358 
H    -3.8211670   -2.8105363   -2.3381560 
H    -2.3511059   -2.5106190   -0.3731303 
H    -2.0982480   -1.1609737   -1.4925628 
H     0.8953048   -4.3047944   -1.4690573 
H    -0.5019336   -4.5361291   -0.4051432 
H    -0.5763615   -4.4307979   -3.4781210 
H    -0.7527042   -5.8848909   -2.4704813 
H    -2.8480685   -4.9412844   -1.4522232 
H    -3.0039181   -5.0389037   -3.2171035 
H     1.4463576    0.3238383    2.8104969 
C    -0.0399613    1.1316743    4.1399404 
H     0.3793660    0.5721163    4.9925180 
H     0.3689664    2.1543270    4.1905041 
H    -1.1354874    1.1688059    4.2572254 
C     3.2991810    4.8239728    2.5013748 
C     3.6707691    3.4956155    2.2351673 
C     2.6979228    2.5538158    1.8810963 
C     1.3358400    2.9237139    1.7933794 
C     0.9791151    4.2661600    2.0179393 
C     1.9570569    5.2048227    2.3822338 
H     4.0581178    5.5601378    2.7854587 
H     4.7206488    3.1924403    2.3037542 
H     3.0026966    1.5231785    1.6632637 
H    -0.0527199    4.5985693    1.8789357 
H     1.6622031    6.2449413    2.5535132 
C    -4.1561267    3.3616724    1.2098194 
C    -3.3359533    3.6588213    2.3096680 
C    -2.0353469    3.1408014    2.3845985 
C    -1.5364721    2.3199102    1.3481730 
C    -2.3712255    2.0271039    0.2497056 
C    -3.6725486    2.5410023    0.1804969 
H    -5.1720130    3.7664440    1.1587355 
H    -3.7109285    4.2954862    3.1175200 
H    -1.4168088    3.3818130    3.2521170 
H    -1.9842164    1.3836181   -0.5509350 
H    -4.3098137    2.2994710   -0.6764121 
