132
Energy =
C     0.5478983   -0.4206233   -3.5424996 
C     0.4827619    0.9737280   -3.2427769 
C     1.4290100    1.5733151   -2.3766158 
H    -0.3987546    1.5466849   -3.5563591 
Pd    0.3186933   -0.1124195   -1.3440445 
P     0.1966422    0.8349849    0.7804596 
P    -0.3925132   -2.2590181   -0.7474311 
H     1.5466449   -0.8831598   -3.5457529 
H     2.3890327    1.0493909   -2.2514881 
C    -2.4249383   -2.6652847   -5.7151816 
C    -2.7904792   -1.4820411   -5.0503612 
C    -1.8338704   -0.7364231   -4.3536816 
C    -0.4811314   -1.1493064   -4.3125353 
C    -0.1252184   -2.3287871   -5.0072700 
C    -1.0862371   -3.0825611   -5.6942808 
H    -3.1779245   -3.2508911   -6.2521863 
H    -3.8315452   -1.1429909   -5.0706047 
H    -2.1454048    0.1653815   -3.8156788 
H     0.9224467   -2.6509037   -5.0149292 
H    -0.7854878   -3.9937173   -6.2220632 
C     1.6565044    5.7086446   -1.2208075 
C     2.6549331    4.7995486   -0.8415499 
C     2.5534252    3.4530558   -1.2098045 
C     1.4498960    2.9849893   -1.9605373 
C     0.4342330    3.9062596   -2.3045872 
C     0.5436920    5.2528585   -1.9461377 
H     1.7406085    6.7653378   -0.9481470 
H     3.5218440    5.1420688   -0.2668207 
H     3.3398741    2.7481619   -0.9188160 
H    -0.4444091    3.5742930   -2.8661205 
H    -0.2449881    5.9541485   -2.2366519 
Fe   -0.5846798   -0.9652055    3.7852921 
C    -0.8106267   -0.1733920    1.9245094 
C    -0.9077527   -1.6277814    1.9002766 
C    -2.0025944   -1.9971408    2.7624760 
C    -2.5640445   -0.8041125    3.3277030 
C    -1.8320163    0.3185956    2.8237229 
C     0.8715446   -2.1398642    4.6290556 
C     1.3562555   -0.8067252    4.4306777 
C     0.4993766    0.0886405    5.1588766 
C    -0.5142221   -0.6956172    5.8052014 
C    -0.2871328   -2.0737497    5.4738821 
C    -0.7301984    2.4157972    0.7086469 
C    -0.2026367    3.6680982    1.0681293 
C    -0.9942152    4.8283944    1.0073482 
C    -2.3191502    4.7183582    0.5330231 
C    -2.8700405    3.4755200    0.1387845 
C    -2.0576061    2.3370796    0.2372395 
C     1.8219017    1.1488748    1.5498890 
C     1.9641177    1.9260481    2.7162174 
C     3.2199175    2.1104699    3.3121065 
C     4.3444943    1.4860486    2.7171281 
C     4.2279497    0.6718066    1.5669294 
C     2.9519821    0.5228664    0.9949356 
C    -0.0458111   -2.5618929    1.0859089 
H    -2.3231243   -3.0150377    2.9892242 
H    -3.3821892   -0.7629899    4.0489721 
H    -2.0131506    1.3690151    3.0559641 
H     1.3101374   -3.0459313    4.2079118 
H     2.2180298   -0.5235899    3.8253556 
H     0.5978486    1.1728879    5.2168144 
H    -1.3293056   -0.3102506    6.4205201 
H    -0.8998246   -2.9193583    5.7921111 
H     0.8366958    3.7609828    1.3930014 
H    -2.4782597    1.3638669   -0.0348297 
H     1.0826317    2.3747316    3.1845637 
H     2.8323814   -0.1057769    0.1028875 
H     1.0000291   -2.2098207    1.1710318 
H     0.4787476   -3.0779199   -2.7533152 
H    -2.1661651   -2.7063870   -2.2399492 
C    -4.4393281   -1.3253574   -1.4220196 
C    -2.9891237   -1.1999573   -0.9270689 
C    -2.2013199   -2.5138996   -1.1468140 
C    -2.9258662   -3.6895736   -0.4540462 
C    -4.3707436   -3.8162841   -0.9742562 
C    -5.1588172   -2.5135079   -0.7640017 
H    -4.4315107   -1.4636885   -2.5204816 
H    -4.9813496   -0.3826734   -1.2220563 
H    -2.9836613   -0.9529929    0.1517505 
H    -2.4725168   -0.3735184   -1.4496058 
H    -2.3850518   -4.6379883   -0.6044382 
H    -2.9538863   -3.4964963    0.6337705 
H    -4.3463534   -4.0644865   -2.0537438 
H    -4.8726030   -4.6590840   -0.4658685 
H    -5.2609109   -2.3219183    0.3225321 
H    -6.1826286   -2.6139399   -1.1663445 
C     0.9687770   -5.7541868   -2.8181538 
C     0.0905875   -4.9597356   -1.8303651 
C     0.5891588   -3.5015233   -1.7379840 
C     2.0870683   -3.4185204   -1.3648104 
C     2.9438949   -4.2311215   -2.3520146 
C     2.4580134   -5.6871377   -2.4429370 
H     0.8274119   -5.3388037   -3.8357224 
H     0.6254519   -6.8034476   -2.8554143 
H     0.1166278   -5.4472220   -0.8397092 
H    -0.9571275   -4.9788130   -2.1762195 
H     2.4104266   -2.3588268   -1.3508581 
H     2.2428822   -3.8117357   -0.3415177 
H     2.8843796   -3.7604607   -3.3537392 
H     4.0052089   -4.1928854   -2.0470417 
H     2.6115480   -6.1834635   -1.4640861 
H     3.0635694   -6.2469276   -3.1777028 
C    -0.1052073   -4.0219855    1.5664728 
H     0.0686145   -4.0452391    2.6552559 
H    -1.0794209   -4.4925533    1.3702271 
H     0.6737822   -4.6322475    1.0845503 
C    -0.4707403    6.1675617    1.4683524 
H    -1.0878468    6.5589910    2.2962972 
H     0.5743429    6.0883303    1.8074069 
H    -0.5116427    6.9188585    0.6608275 
C    -4.3016842    3.3806972   -0.3352589 
H    -4.9400079    4.0901609    0.2168599 
H    -4.3888189    3.6292778   -1.4098952 
H    -4.6960616    2.3599948   -0.1994771 
O    -3.1125587    5.8461743    0.5368897 
C    -3.2118369    6.5545349   -0.7040895 
H    -3.8980896    7.3961219   -0.5278454 
H    -2.2263578    6.9463526   -1.0214204 
H    -3.6175516    5.9136029   -1.5096876 
C     3.3910900    2.9103309    4.5812395 
H     3.9163716    2.3134887    5.3464523 
H     4.0019644    3.8147120    4.4086745 
H     2.4164657    3.2306998    4.9833037 
C     5.4370033   -0.0269526    0.9899873 
H     5.1425694   -0.9360021    0.4396284 
H     5.9805396    0.6264001    0.2815410 
H     6.1425468   -0.3033973    1.7904367 
O     5.5625585    1.6145448    3.3442696 
C     6.4374098    2.6275411    2.8271355 
H     7.3353085    2.6137798    3.4623798 
H     6.7258105    2.4192241    1.7795858 
H     5.9647068    3.6269117    2.8779062 
