122
Energy =
C    -2.1068506   -2.1259840    1.2426316 
C    -1.5644870   -1.7706790    2.4994312 
C    -1.7347443   -0.4453650    2.9959948 
H    -0.9402473   -2.4820934    3.0541425 
Pd   -0.5735450   -0.4059681    1.0910977 
P     0.5299598    1.6740596    1.3257215 
P     0.0983853   -0.8984867   -1.1259527 
H    -2.9017550   -1.4711089    0.8599947 
H    -2.6005874    0.1196726    2.6183754 
C    -2.1732908   -6.0406353   -0.5238118 
C    -3.0476266   -5.0377922   -0.9676996 
C    -2.9908949   -3.7608079   -0.3980698 
C    -2.0631757   -3.4581919    0.6279371 
C    -1.1729489   -4.4746579    1.0469428 
C    -1.2343369   -5.7511813    0.4809795 
H    -2.2084506   -7.0382196   -0.9713287 
H    -3.7717645   -5.2523513   -1.7594667 
H    -3.6938262   -2.9873539   -0.7286519 
H    -0.4182603   -4.2654245    1.8120375 
H    -0.5312495   -6.5221866    0.8124914 
C    -0.3315241    0.8330544    6.8543983 
C    -1.5493088    1.3057337    6.3440040 
C    -1.9857329    0.8986193    5.0766838 
C    -1.2253170   -0.0113429    4.3096805 
C    -0.0048248   -0.4894167    4.8407889 
C     0.4414931   -0.0640305    6.0956023 
H     0.0173384    1.1606596    7.8390360 
H    -2.1568564    2.0037617    6.9290322 
H    -2.9277327    1.2854718    4.6736004 
H     0.6133067   -1.1750669    4.2525278 
H     1.3975844   -0.4291305    6.4843744 
Fe   -3.4970340    2.0628181   -1.8462221 
C    -2.1953376    0.5745544   -1.3520580 
C    -1.6812153    1.8695340   -0.9145628 
C    -2.6696696    2.4424600   -0.0293794 
H    -2.6066772    3.4200867    0.4463518 
C    -3.7681764    1.5290281    0.0905803 
H    -4.6830457    1.7007175    0.6609045 
C    -3.4822372    0.3855986   -0.7256061 
H    -4.1362550   -0.4757809   -0.8797292 
C    -4.6154049    1.7134835   -3.5239650 
H    -4.8408133    0.7393998   -3.9623320 
C    -3.4949399    2.5509180   -3.8461597 
H    -2.7285185    2.3308471   -4.5910808 
C    -3.5772912    3.7345825   -3.0380330 
H    -2.8695268    4.5655804   -3.0345043 
C    -4.7512621    3.6318150   -2.2219886 
H    -5.0834753    4.3620917   -1.4818501 
C    -5.3940860    2.3843844   -2.5228708 
H    -6.3012596    2.0008325   -2.0521676 
C    -0.3406971    2.4363091   -1.2602127 
C     0.7578944    2.4132982   -0.3512711 
C     2.0092397    2.9239126   -0.7495010 
H     2.8618051    2.8665173   -0.0672278 
C     2.1918792    3.4610419   -2.0294487 
H     3.1764523    3.8304929   -2.3314422 
C     1.1147802    3.5046385   -2.9242313 
H     1.2495803    3.9163482   -3.9285888 
C    -0.1298599    2.9964871   -2.5364665 
H    -0.9769920    3.0262150   -3.2239554 
C     1.6589251   -0.2080949   -1.8559235 
C     1.8078599    0.2210048   -3.1864934 
H     0.9659120    0.2465852   -3.8735283 
C     3.0632136    0.6258564   -3.6616414 
C     4.1932077    0.5941345   -2.8345317 
H     5.1724468    0.8975915   -3.2138975 
C     4.0454329    0.1690550   -1.5093230 
C     2.7917778   -0.2233098   -1.0222545 
H     2.7082683   -0.5315009    0.0218702 
C     0.4785614   -2.6833484   -1.4004476 
C    -0.1026365   -3.4781235   -2.4009563 
H    -0.8608476   -3.0784238   -3.0779156 
C     0.2713317   -4.8242003   -2.5315193 
C     1.2204640   -5.3931144   -1.6732239 
H     1.4795330   -6.4511354   -1.7601585 
C     1.7801706   -4.6050123   -0.6587893 
C     1.4117620   -3.2629939   -0.5209231 
H     1.8260820   -2.6801030    0.3071432 
C    -1.4587039   -0.5075370   -2.1267815 
H    -2.0202074   -1.4437491   -1.9428606 
C    -1.3897770   -0.2897285   -3.6474552 
H    -2.4176077   -0.3125077   -4.0439564 
H    -0.9669017    0.6960448   -3.8891299 
H    -0.8039354   -1.0702606   -4.1614536 
C    -0.3619115   -5.6707212   -3.6161564 
F    -0.4881101   -6.9609054   -3.2266256 
F    -1.5997184   -5.2156006   -3.9379097 
F     0.3761809   -5.6597051   -4.7479643 
C     2.7372517   -5.2139651    0.3424909 
F     2.6088384   -4.6128155    1.5588092 
F     2.4955879   -6.5336687    0.5162903 
F     4.0257864   -5.0783964   -0.0337811 
C     3.1990638    1.1668568   -5.0686888 
F     4.2956705    0.6824785   -5.6858949 
F     2.1211147    0.8721316   -5.8321513 
F     3.3180623    2.5234580   -5.0516338 
C     5.2212306    0.2073169   -0.5593617 
F     5.2062719   -0.8438926    0.2949667 
F     6.4015696    0.1991629   -1.2097775 
F     5.1859038    1.3371981    0.2004308 
C     4.6101071    0.8999359    3.4250263 
C     3.7818986   -0.1708711    3.0612172 
C     2.5689560    0.0802485    2.4070288 
C     2.1765434    1.3987397    2.0998659 
C     3.0054759    2.4720094    2.4916420 
C     4.2187128    2.2182105    3.1430974 
H     5.5601925    0.7087723    3.9341248 
H     4.0781086   -1.2009255    3.2831990 
H     1.8989179   -0.7482376    2.1385289 
H     2.6942753    3.5047850    2.3023787 
H     4.8613002    3.0549059    3.4354879 
C    -0.8827101    5.3053612    3.8881675 
C    -0.9179714    5.3923888    2.4883905 
C    -0.5124082    4.3042352    1.7031547 
C    -0.0767425    3.1093831    2.3137967 
C    -0.0189493    3.0374554    3.7219723 
C    -0.4231425    4.1300823    4.5000509 
H    -1.1950740    6.1581559    4.4996795 
H    -1.2465948    6.3166468    2.0016992 
H    -0.5068539    4.4008788    0.6133605 
H     0.3729305    2.1423569    4.2127564 
H    -0.3706826    4.0576517    5.5909766 
