86
Energy =
C     1.4479158    1.4910947    2.1972330 
C     0.6871920    2.4598497    1.4886066 
C    -0.7235896    2.4698476    1.5279529 
H     1.2143413    3.1656614    0.8348614 
Pd    0.0995099    0.5095015    0.6217986 
P    -1.6184540    0.2604589   -0.9829805 
P     1.0034401   -1.6969841    0.6651519 
H     0.9871666    1.0498037    3.0933495 
H    -1.2032928    1.9063819    2.3425762 
C     5.7504043    1.6982461    2.2390812 
C     5.0412734    1.3883443    3.4094083 
C     3.6424825    1.3144482    3.3865935 
C     2.9254372    1.5430067    2.1904958 
C     3.6531336    1.8712705    1.0237830 
C     5.0497653    1.9467930    1.0470312 
H     6.8436841    1.7508413    2.2556007 
H     5.5790144    1.2082309    4.3458861 
H     3.0962816    1.0903204    4.3096757 
H     3.1157854    2.0441528    0.0842216 
H     5.5965908    2.1913222    0.1304917 
C    -3.3188025    5.3609091   -0.3111739 
C    -1.9576058    5.3304251   -0.6612855 
C    -1.0964277    4.4036004   -0.0671132 
C    -1.5789901    3.4825764    0.8939806 
C    -2.9463574    3.5417927    1.2527518 
C    -3.8089067    4.4675851    0.6536839 
H    -3.9908740    6.0849453   -0.7827402 
H    -1.5684575    6.0316101   -1.4064668 
H    -0.0450427    4.3829632   -0.3701368 
H    -3.3324762    2.8516855    2.0109885 
H    -4.8642943    4.4955703    0.9432124 
Fe   -0.6089891   -2.7247632   -2.1493837 
C     0.1975097   -2.9918147   -0.3331814 
C     0.8172354   -3.8782469   -1.3006459 
H     1.8702943   -3.8948563   -1.5841753 
C    -0.2037967   -4.7139245   -1.8605239 
H    -0.0555479   -5.4648660   -2.6385059 
C    -1.4529859   -4.3650910   -1.2525190 
H    -2.4241249   -4.8074334   -1.4812391 
C    -1.2139107   -3.3109977   -0.3111414 
C    -1.1940412   -0.8304017   -2.3702973 
C    -2.0474042   -1.7112381   -3.1450090 
H    -3.1238519   -1.8445024   -3.0265560 
C    -1.2218604   -2.4144741   -4.0830034 
H    -1.5651847   -3.1756026   -4.7859774 
C     0.1322697   -1.9761718   -3.9107685 
H     0.9996746   -2.3457778   -4.4604796 
C     0.1557027   -0.9968206   -2.8654625 
H    -1.9647252   -2.8335007    0.3193625 
H     1.0348583   -0.4768607   -2.4787508 
C    -2.3158967    1.7534903   -1.8866805 
C    -3.7414746    1.2950122   -2.2549726 
C    -4.3365999    0.6413397   -0.9972976 
C    -3.3037629   -0.3472102   -0.3849484 
H    -2.4036422    2.5404072   -1.1213277 
H    -4.3480014    2.1559309   -2.5897328 
H    -3.7057691    0.5789136   -3.0975774 
H    -4.5503432    1.4329354   -0.2553371 
H    -5.2900747    0.1249991   -1.2047167 
H    -3.4219891   -1.3470305   -0.8383921 
C     1.0764621   -2.4090351    2.4143256 
C     2.4533293   -1.9051416    2.9219924 
C     3.4962276   -1.8152285    1.7687239 
C     2.8274799   -2.0360750    0.3862078 
H     0.2620962   -1.9591891    3.0089719 
H     2.3307497   -0.9097908    3.3741677 
H     2.8059708   -2.5681843    3.7312048 
H     3.9905891   -0.8312655    1.7908330 
H     4.2921583   -2.5691090    1.8933727 
H     2.8457520   -3.1201417    0.1741402 
C     3.4762739   -1.2920867   -0.7839113 
H     3.3650249   -0.2015689   -0.6697332 
H     4.5560325   -1.5194995   -0.8275158 
C     0.9426758   -3.9406292    2.4448772 
H    -0.0411261   -4.2776895    2.0804010 
H     1.7170954   -4.4336786    1.8317133 
C    -1.4499735    2.2649770   -3.0390713 
H    -0.4438907    2.5545913   -2.6875783 
H    -1.9178046    3.1588774   -3.4877521 
C    -3.4088282   -0.4730522    1.1412013 
H    -2.6626232   -1.1742027    1.5540764 
H    -4.4129038   -0.8341200    1.4261335 
H     1.0622080   -4.2931153    3.4850105 
H     3.0300379   -1.5909958   -1.7479711 
H    -3.2520981    0.5042130    1.6287300 
H    -1.3343302    1.5034415   -3.8298293 
