112
Energy =
C     2.3901126   -0.1840467   -2.4460457 
C     1.8205091    1.1171753   -2.6089059 
C     1.9220914    2.0821550   -1.5871810 
H     1.2022995    1.3300639   -3.4895907 
Pd    0.8495711    0.1241046   -0.8723629 
P    -0.9374781    0.8700301    0.4633033 
P     0.8965620   -2.0309431    0.0324192 
H     3.2988639   -0.2543853   -1.8354921 
H     2.6957318    1.9113419   -0.8227374 
C     1.8815373   -3.4222913   -5.2406290 
C     0.9484802   -2.3718279   -5.2114917 
C     1.1055324   -1.3146111   -4.3095783 
C     2.2079841   -1.2750883   -3.4226657 
C     3.1413062   -2.3368790   -3.4657362 
C     2.9764586   -3.4004086   -4.3622780 
H     1.7550994   -4.2520214   -5.9436636 
H     0.0872608   -2.3835118   -5.8877084 
H     0.3501718   -0.5234095   -4.2767821 
H     3.9966904   -2.3292162   -2.7825739 
H     3.7085899   -4.2143369   -4.3759151 
C     0.5077449    6.1439039   -1.6312919 
C     1.5113223    5.7382878   -0.7395496 
C     1.9519480    4.4092330   -0.7363252 
C     1.4103619    3.4591192   -1.6329273 
C     0.4194215    3.8917373   -2.5461765 
C    -0.0322218    5.2143906   -2.5373145 
H     0.1561519    7.1806090   -1.6312431 
H     1.9519385    6.4592371   -0.0433060 
H     2.7325750    4.0970267   -0.0338718 
H    -0.0061278    3.1883799   -3.2651517 
H    -0.8053402    5.5268810   -3.2469145 
Fe   -1.4247754   -0.4177721    3.9220615 
C    -1.4285020   -0.2212557    1.8571089 
C    -0.7620374   -1.4520034    2.2652519 
C    -1.7009688   -2.2220552    3.0413354 
C    -2.9376814   -1.5039127    3.1174819 
C    -2.7694658   -0.2693856    2.4160168 
C    -2.2711989    0.4169377    5.5852117 
C    -1.6246164   -0.8217625    5.9120799 
C    -0.2358909   -0.7020287    5.5743469 
C    -0.0241627    0.6098117    5.0385243 
C    -1.2831650    1.3002661    5.0445828 
C     0.6230736   -1.9426046    1.9057668 
H    -1.4862192   -3.1857177    3.5092110 
H    -3.8306753   -1.8155299    3.6625829 
H    -3.5350349    0.5001662    2.3059998 
H    -3.3342176    0.6358441    5.7020865 
H    -2.1106669   -1.7108499    6.3184772 
H     0.5187271   -1.4805855    5.7017902 
H     0.9289362    1.0178706    4.6997444 
H    -1.4560793    2.3204171    4.7042927 
H    -3.2800993    1.2373758    0.2650282 
C    -2.3365871   -1.0152396   -2.2332962 
C    -3.0104413   -0.5337265   -0.9414268 
C    -2.5676009    0.8822847   -0.5001143 
C    -2.6091732    1.8840430   -1.6779636 
C    -1.9684581    1.3479970   -2.9672844 
C    -2.5457317   -0.0138631   -3.3743051 
H    -2.7120089   -2.0189032   -2.4969963 
H    -1.2456481   -1.1273179   -2.0624624 
H    -2.8506735   -1.2601557   -0.1261422 
H    -4.1051994   -0.4944371   -1.1057352 
H    -3.6776261    2.0960597   -1.8778440 
H    -2.1529421    2.8498386   -1.3952320 
H    -2.0866999    2.0910022   -3.7765614 
H    -0.8807088    1.2213978   -2.7952127 
H    -2.0661902   -0.3752236   -4.3020279 
H    -3.6261596    0.0881228   -3.5969958 
H    -0.5166179    3.2010728    0.1860639 
C     0.6952087    4.1042424    2.5999632 
C     0.4645741    2.6858034    2.0457865 
C    -0.7512433    2.6176376    1.0985341 
C    -2.0140724    3.2088415    1.7565131 
C    -1.7537254    4.6478045    2.2423075 
C    -0.5725673    4.7093927    3.2229228 
H     1.0245973    4.7588805    1.7738593 
H     1.5180598    4.0821443    3.3375408 
H     0.2895856    1.9748365    2.8720043 
H     1.3677565    2.3352982    1.5110676 
H    -2.8596417    3.2082985    1.0465168 
H    -2.3047329    2.5716468    2.6132233 
H    -1.5352148    5.2873954    1.3646871 
H    -2.6689427    5.0519543    2.7110717 
H    -0.8336890    4.1638151    4.1503105 
H    -0.3812872    5.7539594    3.5265790 
H     0.7155723   -2.9863219    2.2567177 
C     1.7470518   -1.1010003    2.5381662 
H     1.5927395   -1.0764023    3.6262136 
H     2.7415867   -1.5296198    2.3397413 
H     1.7186882   -0.0625300    2.1650848 
C    -2.0432685   -5.0087402   -1.9967538 
C    -0.8810178   -4.5659687   -2.6477742 
C     0.0003910   -3.6938586   -2.0003101 
C    -0.2655659   -3.2547666   -0.6829250 
C    -1.4320027   -3.7048214   -0.0336224 
C    -2.3126599   -4.5776205   -0.6902905 
H    -2.7344971   -5.6889616   -2.5049898 
H    -0.6544467   -4.8942841   -3.6671607 
H     0.9033564   -3.3614012   -2.5179974 
H    -1.6681068   -3.3736901    0.9786629 
H    -3.2144182   -4.9201687   -0.1722016 
C     5.1034361   -4.0320972   -0.2374236 
C     4.9803932   -2.6492317   -0.0290562 
C     3.7105549   -2.0626123    0.0380537 
C     2.5451768   -2.8494221   -0.0895738 
C     2.6784617   -4.2402233   -0.2770347 
C     3.9517820   -4.8230008   -0.3579256 
H     6.0951058   -4.4913197   -0.3029124 
H     5.8741502   -2.0250166    0.0726190 
H     3.6203025   -0.9811315    0.1884702 
H     1.7896866   -4.8714563   -0.3707569 
H     4.0409206   -5.9031601   -0.5136661 
