110
Energy =
C    -3.5244227    0.7921360   -0.0072130 
C    -2.6947546    1.9267342   -0.2736403 
C    -1.9327389    1.9878199   -1.4586344 
H    -2.5852369    2.7140604    0.4824676 
Pd   -1.3514913    0.1832213   -0.1281306 
P     0.9466637    0.6340177   -0.1459326 
P    -1.1842595   -2.1198723    0.5315411 
H    -3.9632410    0.2966880   -0.8827238 
H    -2.2057065    1.2780954   -2.2554219 
C    -5.7348452    0.2973191    3.6570369 
C    -4.5324034    1.0237584    3.6578802 
C    -3.8122672    1.1927058    2.4713867 
C    -4.2769180    0.6427779    1.2521616 
C    -5.4955214   -0.0739404    1.2663504 
C    -6.2142239   -0.2470358    2.4557229 
H    -6.2962443    0.1609216    4.5867931 
H    -4.1519781    1.4532727    4.5904484 
H    -2.8637419    1.7406644    2.4947862 
H    -5.8835425   -0.4918487    0.3314413 
H    -7.1566642   -0.8042650    2.4439693 
C     0.5128016    5.2041860   -2.9112054 
C     0.1105483    4.1631183   -3.7622022 
C    -0.6672011    3.1127817   -3.2624651 
C    -1.0806736    3.0942003   -1.9093990 
C    -0.6801405    4.1607891   -1.0689708 
C     0.1191682    5.1962891   -1.5606662 
H     1.1285449    6.0229809   -3.2977013 
H     0.4196228    4.1526454   -4.8121590 
H    -0.9574897    2.2900194   -3.9253631 
H    -0.9944972    4.1845130   -0.0229534 
H     0.4287481    6.0023823   -0.8869510 
Fe    3.5907660   -1.7076295    0.2284234 
C     1.9723496   -0.6043489    0.7032298 
C     1.6520418   -2.0220424    0.7650520 
C     2.5512195   -2.6186053    1.7207992 
C     3.4005625   -1.5964650    2.2561673 
C     3.0543944   -0.3546540    1.6359676 
C     4.5279541   -3.2166406   -0.7735170 
C     3.8617173   -2.3388229   -1.6951864 
C     4.4089028   -1.0218013   -1.5244621 
C     5.4025384   -1.0829034   -0.4933908 
C     5.4772547   -2.4389093   -0.0279601 
C     1.3029153    2.1522085    0.8310007 
C     0.3011628    2.6114914    1.7079296 
C     0.4727556    3.7910729    2.4399076 
C     1.6576186    4.5278481    2.2964496 
C     2.6989718    4.0394841    1.4910250 
C     2.5290728    2.8494711    0.7750623 
C     1.5758995    0.8869078   -1.8585364 
C     1.2479843   -0.1216858   -2.7910658 
C     1.6218256   -0.0094024   -4.1331262 
C     2.3253770    1.1266837   -4.5653282 
C     2.6491041    2.1385267   -3.6517285 
C     2.2632249    2.0279019   -2.3107956 
C     0.5639302   -2.7258480   -0.0072138 
H     2.6079890   -3.6780896    1.9732914 
H     4.1996771   -1.7451010    2.9843131 
H     3.5164731    0.6106959    1.8408985 
H     4.3450016   -4.2859678   -0.6518170 
H     3.0830216   -2.6218649   -2.4059350 
H     4.1104828   -0.1289465   -2.0748571 
H     5.9889648   -0.2432983   -0.1157612 
H     6.1276181   -2.8103784    0.7660058 
H    -0.6305536    2.0419909    1.7960347 
H     3.3588434    2.4697915    0.1723824 
H     0.6741556   -0.9972651   -2.4689214 
H     2.4645026    2.8646705   -1.6408081 
H     0.5897084   -2.3273688   -1.0361942 
C     0.8476971   -4.2377083   -0.0953691 
H     1.8985053   -4.3608471   -0.4081901 
H     0.7187097   -4.7543733    0.8664617 
H     0.2164287   -4.7373094   -0.8428807 
C     1.7845642    5.8894754    2.9445450 
F     1.3523204    6.8535886    2.0875957 
F     1.0392763    5.9859153    4.0666031 
F     3.0641961    6.1796759    3.2627452 
H    -0.3163484    4.1521358    3.1059047 
H     3.6395875    4.5939569    1.4249180 
H     1.3602879   -0.7927708   -4.8499689 
H     3.1771351    3.0333612   -3.9934417 
C     2.6382633    1.3305801   -6.0305358 
F     1.7290056    2.1745433   -6.5926923 
F     3.8567068    1.8864317   -6.2080595 
F     2.5976193    0.1743832   -6.7262989 
C    -2.3852697   -3.2313993   -0.4834088 
C    -1.3658228   -2.3726120    2.4195574 
C    -1.8884683   -3.1830920   -1.9501982 
H    -2.6505547   -3.6488150   -2.6007166 
H    -1.7564224   -2.1368466   -2.2870770 
H    -0.9439964   -3.7257723   -2.1116809 
C    -2.8618765   -2.3598094    2.7996290 
H    -2.9415164   -2.3231084    3.9011700 
H    -3.3826747   -1.4749612    2.4024081 
H    -3.3874903   -3.2675905    2.4621408 
C    -2.4865320   -4.6865076    0.0271969 
H    -3.1092055   -5.2629887   -0.6816491 
H    -1.5171247   -5.1964280    0.1067462 
H    -2.9833400   -4.7333045    1.0095613 
C    -3.8025493   -2.6195836   -0.4719027 
H    -4.4809191   -3.2990979   -1.0195249 
H    -4.2073118   -2.4825279    0.5403156 
H    -3.8153214   -1.6481447   -0.9858563 
C    -0.7096877   -3.6686454    2.9370594 
H    -0.8940151   -3.7433113    4.0246741 
H    -1.1296657   -4.5721117    2.4678480 
H     0.3810331   -3.6597911    2.7900819 
C    -0.6849432   -1.1503248    3.0839542 
H    -1.1764274   -0.2111936    2.7753201 
H    -0.7835820   -1.2417222    4.1812647 
H     0.3884073   -1.0831908    2.8441620 
