110
Energy =
C    -3.4078009    0.4809090   -0.9493324 
C    -2.8062673    1.6307542   -0.4286285 
C    -1.6259883    2.2072434   -1.0055033 
H    -3.2349791    2.1108152    0.4606173 
Pd   -1.0611550    0.2784527   -0.0567340 
P     1.1894721    0.6677661   -0.3770734 
P    -0.8675237   -1.7790768    1.1628786 
H    -3.0385137    0.1277924   -1.9233660 
H    -1.4504728    2.0090016   -2.0733146 
C    -7.1548229   -1.2709896    0.1844502 
C    -6.5202171   -1.6421901   -1.0104998 
C    -5.2960654   -1.0632218   -1.3604919 
C    -4.6833661   -0.0956577   -0.5273176 
C    -5.3452736    0.2803399    0.6680969 
C    -6.5632403   -0.3059930    1.0194747 
H    -8.1110149   -1.7250171    0.4636002 
H    -6.9809529   -2.3846840   -1.6699196 
H    -4.7981525   -1.3607275   -2.2902033 
H    -4.8994346    1.0273322    1.3319903 
H    -7.0610352   -0.0081283    1.9479502 
C    -0.4871593    6.1284787    0.3525188 
C    -0.5633403    5.8452355   -1.0190011 
C    -0.8860314    4.5527100   -1.4540992 
C    -1.1645040    3.5281811   -0.5228905 
C    -1.0761298    3.8259397    0.8568606 
C    -0.7357609    5.1106897    1.2892951 
H    -0.2142353    7.1306002    0.6966522 
H    -0.3675300    6.6328026   -1.7542155 
H    -0.9475644    4.3366124   -2.5268484 
H    -1.2470284    3.0296534    1.5915235 
H    -0.6425440    5.3222017    2.3586362 
Fe    3.4967058   -2.0347172   -0.3599564 
C     2.3485562   -0.5253951    0.3475240 
C     2.0849486   -1.7634085    1.0706637 
C     3.3440594   -2.1602382    1.6639138 
C     4.3591575   -1.2183141    1.3058328 
C     3.7593612   -0.2150787    0.4894644 
C     4.5692374   -3.6774046   -0.9304915 
C     3.1703474   -3.8744248   -1.1864592 
C     2.7325920   -2.8374925   -2.0755111 
C     3.8639869   -2.0019248   -2.3741275 
C     4.9965960   -2.5222796   -1.6666990 
C     1.8267598    2.2434197    0.3205807 
C     2.1185964    2.2869439    1.7015923 
C     2.5251111    3.4804693    2.3038534 
C     2.6544318    4.6447008    1.5289741 
C     2.3856033    4.6080452    0.1538764 
C     1.9592715    3.4176113   -0.4459202 
C     1.5790304    0.7120346   -2.1771198 
C     2.7662447    1.2878176   -2.6762605 
C     3.0456266    1.2516983   -4.0465773 
C     2.1524902    0.6211114   -4.9294840 
C     0.9778612    0.0296730   -4.4415806 
C     0.6914086    0.0839275   -3.0717468 
C     0.8299375   -2.6312900    1.1310042 
H     3.5227021   -3.0590140    2.2525874 
H     5.4131685   -1.2797249    1.5813793 
H     4.2593031    0.6596400    0.0712766 
H     5.1918365   -4.2843673   -0.2705412 
H     2.5491788   -4.6659639   -0.7611958 
H     1.7193739   -2.6968383   -2.4572483 
H     3.8582670   -1.1278923   -3.0242650 
H     6.0026224   -2.0989389   -1.6655672 
H     2.0452771    1.3786378    2.3072651 
H     1.7269181    3.4160360   -1.5130075 
H     3.4818817    1.7609721   -1.9979213 
H    -0.2266742   -0.3752782   -2.6848820 
H     0.7435755   -3.1209584    0.1439868 
C     1.0343865   -3.7358807    2.1919295 
H     0.1369797   -4.3376139    2.3642385 
H     1.8299671   -4.4211511    1.8527300 
H     1.3493153   -3.3056008    3.1556661 
C     3.0074929    5.9566079    2.1920543 
F     1.8840857    6.5975331    2.6234962 
F     3.7982754    5.7784333    3.2731586 
F     3.6396177    6.7972526    1.3439485 
H     2.7517535    3.5097195    3.3734871 
H     2.4930107    5.5144860   -0.4468400 
H     3.9674058    1.6973861   -4.4321403 
H     0.2940280   -0.4705724   -5.1329935 
C     2.4508713    0.6189533   -6.4148400 
F     1.7976230   -0.3769884   -7.0543434 
F     2.0725343    1.7868684   -6.9865948 
F     3.7746744    0.4664141   -6.6480413 
C    -2.0072590   -3.1552340    0.4301310 
C    -1.2703133   -1.3232940    2.9797770 
C    -3.4558365   -2.8826259    0.8744051 
H    -4.1464854   -3.4860905    0.2589570 
H    -3.6184547   -3.1620350    1.9277401 
H    -3.7357273   -1.8297118    0.7429058 
C    -1.5514788   -2.5118713    3.9221309 
H    -1.8269022   -2.1132039    4.9161530 
H    -2.3945877   -3.1287416    3.5721457 
H    -0.6766040   -3.1614947    4.0611970 
C    -1.8833397   -2.9851940   -1.1038115 
H    -2.5123430   -3.7407198   -1.6090619 
H    -2.2176396   -1.9855420   -1.4254893 
H    -0.8438519   -3.1285354   -1.4521572 
C    -1.6670011   -4.6200290    0.7775161 
H    -2.4135861   -5.2639163    0.2772410 
H    -0.6753465   -4.9315860    0.4112666 
H    -1.7349929   -4.8244394    1.8581471 
C    -0.0407725   -0.5223377    3.4713457 
H    -0.2322834   -0.1590180    4.4975686 
H     0.8824237   -1.1246795    3.4924864 
H     0.1344643    0.3584169    2.8281801 
C    -2.4904565   -0.3713247    2.9844675 
H    -3.4220709   -0.8722027    2.6814129 
H    -2.6345687    0.0203796    4.0081376 
H    -2.3237283    0.4895632    2.3099745 
