106
Energy =
C    -3.2387558   -0.5058774   -1.2278415 
C    -3.2472100   -1.2340455   -0.0031551 
C    -2.9980151   -0.5631213    1.2219357 
H    -3.2736849   -2.3306137   -0.0248192 
Pd   -1.2639348   -0.2880616   -0.2088005 
P     0.5278830    0.0714307    1.2422949 
P    -0.1662499    0.4010620   -2.1323816 
H    -3.5320308    0.5525843   -1.1761106 
H    -3.1520536    0.5276977    1.2294076 
C    -3.4220617   -2.1340524   -5.2060999 
C    -3.0140289   -2.9526074   -4.1392533 
C    -2.9483424   -2.4393857   -2.8411605 
C    -3.3056991   -1.0961809   -2.5773971 
C    -3.7084973   -0.2827580   -3.6609286 
C    -3.7648996   -0.7968299   -4.9622886 
H    -3.4668296   -2.5385404   -6.2225123 
H    -2.7355067   -3.9948069   -4.3251030 
H    -2.5970011   -3.0819640   -2.0268833 
H    -3.9803702    0.7619192   -3.4754358 
H    -4.0826244   -0.1507118   -5.7872873 
C    -2.6885080   -2.2527507    5.1613661 
C    -2.4203332   -0.8938101    4.9349449 
C    -2.5539155   -0.3588701    3.6503727 
C    -2.9289375   -1.1750033    2.5583119 
C    -3.2103291   -2.5380507    2.8026067 
C    -3.0992382   -3.0662981    4.0933951 
H    -2.5929848   -2.6735301    6.1674659 
H    -2.1132610   -0.2478572    5.7642980 
H    -2.3502399    0.7029341    3.4759030 
H    -3.5309818   -3.1905806    1.9839027 
H    -3.3329050   -4.1214226    4.2678494 
Fe    3.3064068    1.0951646   -2.5100194 
C     1.4155420    1.2540862   -1.8452084 
C     2.3148755    1.0328461   -0.7182381 
C     3.2702531    2.1076446   -0.7277065 
C     2.9748623    2.9880604   -1.8187509 
C     1.8337437    2.4723862   -2.5126443 
C     3.4195398    0.3160863   -4.3899115 
C     4.4212522    1.3262483   -4.2026916 
C     5.2569919    0.9258378   -3.1067168 
C     4.7755302   -0.3342580   -2.6200559 
C     3.6377131   -0.7113710   -3.4096944 
C     2.2033729   -0.0246732    0.3492811 
H     4.0958668    2.2159574   -0.0215562 
H     3.5451294    3.8757076   -2.0985010 
H     1.3579356    2.9054554   -3.3938537 
H     2.6178443    0.3324505   -5.1293645 
H     4.5131717    2.2528892   -4.7725226 
H     6.0968938    1.4918715   -2.6998171 
H     5.2018885   -0.8967716   -1.7876135 
H     3.0334219   -1.6109906   -3.2850823 
H     2.9553802    0.1921732    1.1285144 
C     2.3848931   -1.4689474   -0.1512569 
H     3.3814808   -1.5690048   -0.6070411 
H     2.3029872   -2.1922047    0.6768852 
H     1.6328725   -1.7260234   -0.9154817 
C    -1.1523355    1.6860271   -2.9418076 
C    -1.9598764    2.6537136   -2.3788433 
C    -2.4153690    3.4836067   -3.4537779 
C    -1.8532121    2.9702468   -4.5963180 
H    -2.1896532    2.7543753   -1.3171901 
H    -3.0793349    4.3456320   -3.3887250 
H    -1.9063469    3.2391143   -5.6504328 
O    -1.0740665    1.8886728   -4.2999252 
C     0.0385962   -0.8885432   -3.3851260 
C     0.0006393   -0.9482112   -4.7625992 
C     0.3089491   -2.2993301   -5.1201826 
C     0.5117088   -2.9744252   -3.9426299 
H    -0.2306456   -0.1194615   -5.4283347 
H     0.3631404   -2.7176949   -6.1253502 
H     0.7585747   -4.0060893   -3.6965233 
O     0.3465646   -2.1357911   -2.8801180 
C    -0.1857518    4.3283475    2.9213332 
C     0.0522777    4.1473126    1.5456360 
C     0.3079604    2.8476642    1.0755950 
C     0.3538702    1.7502545    1.9618738 
C     0.1060656    1.9604834    3.3332269 
C    -0.1673520    3.2504119    3.8262679 
H    -0.4013059    5.3361404    3.2971940 
H     0.4652697    2.6980132    0.0033877 
H     0.1065192    1.1155279    4.0279349 
C     1.3260530   -3.0774850    4.5193609 
C     1.9766880   -1.8321582    4.6207679 
C     1.7104064   -0.8589869    3.6416525 
C     0.7907534   -1.1189032    2.6051191 
C     0.1625818   -2.3747535    2.5242542 
C     0.4312830   -3.3753360    3.4753919 
H     1.5358652   -3.8465657    5.2731923 
H     2.2291869    0.1053164    3.6919876 
H    -0.5313229   -2.5760975    1.7001333 
C     0.0483228    5.3200490    0.5896449 
H    -0.1003875    4.9892062   -0.4521449 
H    -0.7417550    6.0470162    0.8445652 
H     1.0140601    5.8578938    0.6319090 
C    -0.4307759    3.4745226    5.2994810 
H    -0.5274879    2.5198222    5.8427814 
H     0.3936386    4.0459618    5.7642937 
H    -1.3564439    4.0561819    5.4550327 
C     2.9320507   -1.5530024    5.7601446 
H     3.4888395   -0.6147540    5.6024936 
H     2.3839254   -1.4640590    6.7164392 
H     3.6621058   -2.3725658    5.8796320 
C    -0.1962085   -4.7469395    3.3686895 
H     0.5681327   -5.5076893    3.1247019 
H    -0.6625386   -5.0465977    4.3232535 
H    -0.9701615   -4.7765921    2.5851086 
