110
Energy =
C    -3.4124759    0.5668424   -0.5917371 
C    -2.8549717    1.7557278   -0.0822303 
C    -1.7242710    2.3716643   -0.6996697 
H    -3.2498874    2.1912845    0.8446226 
Pd   -1.1613147    0.3475823    0.1115557 
P     1.1416164    0.7115289   -0.2116561 
P    -1.0087743   -1.8554390    1.0122374 
H    -3.0982175    0.2679189   -1.6034942 
H    -1.5969286    2.2039605   -1.7788273 
C    -7.0659350   -1.3362721    0.6288195 
C    -6.4407773   -1.6848454   -0.5782136 
C    -5.2510874   -1.0535858   -0.9568716 
C    -4.6559536   -0.0656805   -0.1355581 
C    -5.3123056    0.2909952    1.0669398 
C    -6.5008408   -0.3406506    1.4438149 
H    -7.9962421   -1.8289073    0.9289891 
H    -6.8844152   -2.4461802   -1.2277219 
H    -4.7723164   -1.3203025   -1.9057663 
H    -4.8941171    1.0678369    1.7143523 
H    -6.9941171   -0.0535292    2.3780569 
C    -0.3348147    6.1837859    0.7222619 
C    -0.4826053    5.9475517   -0.6522661 
C    -0.8903453    4.6874659   -1.1092752 
C    -1.1869057    3.6517897   -0.1956425 
C    -1.0228981    3.9000982    1.1868858 
C    -0.5961604    5.1516454    1.6397294 
H     0.0056918    7.1589976    1.0828564 
H    -0.2749465    6.7459048   -1.3723853 
H    -1.0056403    4.5069155   -2.1841695 
H    -1.2038801    3.0907750    1.9043790 
H    -0.4458085    5.3253480    2.7094245 
Fe    3.3060254   -2.1276633   -0.3852818 
C     2.3064797   -0.5341655    0.4336338 
C     1.9566090   -1.7410249    1.1626861 
C     3.1946056   -2.3128727    1.6367414 
C     4.2814723   -1.4591079    1.2636270 
C     3.7450425   -0.3691768    0.5079339 
C     2.9905039   -2.3729420   -2.4092771 
C     4.3309786   -1.9415272   -2.1449648 
C     4.9499997   -2.9151382   -1.2907043 
C     3.9894286   -3.9477203   -1.0238392 
C     2.7846002   -3.6162985   -1.7229693 
C     1.8442602    2.2541069    0.5022876 
C     2.0048333    3.4254912   -0.2629191 
C     2.4905093    4.5954416    0.3322564 
C     2.8010695    4.6112972    1.6991335 
C     2.6530781    3.4464011    2.4695706 
C     2.1799678    2.2747047    1.8729911 
C     1.5185727    0.8417666   -2.0152058 
C     2.8142439    1.1751803   -2.4630043 
C     3.1065927    1.2048885   -3.8300974 
C     2.1062469    0.9013338   -4.7686847 
C     0.8107440    0.5812573   -4.3370950 
C     0.5216843    0.5597414   -2.9669505 
C     0.6567697   -2.0299073    1.9018500 
H     3.2724644   -3.2305793    2.2242292 
H     5.3383829   -1.6325589    1.4733433 
H     4.3214682    0.4515583    0.0792567 
H     2.2642999   -1.8454266   -3.0297283 
H     4.7970790   -1.0295117   -2.5191818 
H     5.9649315   -2.8651288   -0.8924574 
H     4.1486007   -4.8262149   -0.3961241 
H     1.8804505   -4.2210877   -1.7419269 
H     1.7519572    3.4339760   -1.3259940 
H     2.0874291    1.3666275    2.4753472 
H     3.6010993    1.4191226   -1.7445740 
H    -0.4880927    0.3065022   -2.6296262 
H     0.7005803   -3.0707518    2.2648218 
C     0.7151932   -1.0724228    3.1273214 
H     1.7431317   -1.0606453    3.5255105 
H     0.4517367   -0.0428982    2.8263052 
H     0.0446430   -1.3765065    3.9424981 
C     3.2244597    5.9017775    2.3630429 
F     2.1432402    6.5650571    2.8634222 
F     4.0645673    5.6831878    3.3988238 
F     3.8354412    6.7398326    1.4972592 
H     2.6158426    5.5017780   -0.2652909 
H     2.9156043    3.4582597    3.5313612 
H     4.1141473    1.4564716   -4.1737018 
H     0.0347586    0.3446622   -5.0707864 
C     2.4103136    0.9736752   -6.2511895 
F     1.6658521    0.0871896   -6.9512647 
F     2.1378942    2.2063188   -6.7414321 
F     3.7130651    0.7157321   -6.5037085 
C    -0.9802832   -3.2016772   -0.3562887 
C    -2.2790438   -2.2646680    2.4231553 
C    -2.3835766   -3.6213954   -0.8425618 
H    -2.2655820   -4.1281204   -1.8178873 
H    -2.8782355   -4.3296771   -0.1641090 
H    -3.0469951   -2.7543129   -0.9934160 
C    -3.6247097   -2.7670492    1.8530344 
H    -3.9796169   -2.1694324    1.0036737 
H    -3.5785398   -3.8237489    1.5542414 
H    -4.3833747   -2.6851421    2.6515481 
C    -0.2956420   -2.5041607   -1.5498834 
H    -0.1306007   -3.2347020   -2.3627850 
H    -0.9479857   -1.7070393   -1.9449921 
H     0.6766853   -2.0660108   -1.2763480 
C    -0.1897129   -4.4473530    0.0912094 
H    -0.1953098   -5.1910550   -0.7274172 
H     0.8614331   -4.2063709    0.3191741 
H    -0.6481236   -4.9282524    0.9720658 
C    -1.7696493   -3.3450132    3.4037018 
H    -2.5715408   -3.5542881    4.1353584 
H    -1.5475302   -4.2917890    2.8830997 
H    -0.8795123   -3.0469610    3.9775608 
C    -2.5769575   -0.9292780    3.1505140 
H    -3.0173165   -0.2022292    2.4481745 
H    -3.3162467   -1.1179290    3.9503537 
H    -1.6952466   -0.4646334    3.6121082 
