110
Energy =
C     2.8651201    1.2103143    0.3604441 
C     2.8143471    1.1863496   -1.0520840 
C     2.1144101    2.1862040   -1.7851229 
H     3.2433729    0.3316849   -1.5887998 
Pd    0.7122904    0.9932613   -0.4092665 
P    -1.5038286    1.4910011   -1.1298921 
P     0.0658578   -0.5138152    1.2356610 
H     2.6188062    2.1685297    0.8426958 
H     2.0064461    3.1677900   -1.3011757 
C     5.1288304   -1.3890631    2.9258805 
C     4.4713243   -0.2639670    3.4447605 
C     3.7199463    0.5591686    2.5981252 
C     3.6111141    0.2763814    1.2159269 
C     4.2687948   -0.8711346    0.7123668 
C     5.0213593   -1.6910532    1.5574473 
H     5.7231065   -2.0323679    3.5829345 
H     4.5513913   -0.0206986    4.5092013 
H     3.2202913    1.4438446    3.0066709 
H     4.2013921   -1.1231365   -0.3500865 
H     5.5173960   -2.5777035    1.1525347 
C     1.9582439    2.3059106   -6.0925796 
C     2.1321521    1.0773944   -5.4343527 
C     2.1855200    1.0265882   -4.0377870 
C     2.0654256    2.2037329   -3.2609757 
C     1.9160952    3.4349251   -3.9413158 
C     1.8580793    3.4852861   -5.3394248 
H     1.9114169    2.3435662   -7.1855753 
H     2.2238134    0.1531857   -6.0144072 
H     2.3132909    0.0567704   -3.5451061 
H     1.8562556    4.3646362   -3.3650225 
H     1.7424848    4.4505720   -5.8429506 
Fe   -2.4130952   -2.7594026   -0.1950335 
C    -1.5386990   -1.3330954    1.0231625 
C    -2.6906853   -0.7490719    0.3647573 
C    -3.8216197   -1.5807333    0.6954851 
C    -3.3940213   -2.6304028    1.5720100 
C    -1.9791572   -2.5033482    1.7552148 
C    -3.5351917   -3.9685614   -1.4038529 
C    -2.5936609   -3.2449302   -2.2025249 
C    -1.2773848   -3.5642460   -1.7315025 
C    -1.4008612   -4.4861286   -0.6418562 
C    -2.7980273   -4.7436270   -0.4456291 
C    -0.0578279    0.2606794    2.9058505 
C     0.3400124    1.6036001    3.0498706 
C     0.2181704    2.2601797    4.2811336 
C    -0.3099850    1.5737241    5.3827989 
C    -0.7228898    0.2360799    5.2506747 
C    -0.6029832   -0.4148186    4.0192771 
C     1.1905526   -1.9561391    1.3910925 
C     1.7283693   -2.4210276    2.6020615 
C     2.5280913   -3.5726934    2.6146302 
C     2.7921869   -4.2585554    1.4213048 
C     2.2725307   -3.7876511    0.2026551 
C     1.4834946   -2.6360799    0.1901185 
C    -2.8629636    0.7119544   -0.0355212 
H    -4.8448940   -1.4115158    0.3523069 
H    -4.0251211   -3.4233616    1.9776080 
H    -1.3356095   -3.1763249    2.3261552 
H    -4.6219462   -3.9305026   -1.4977748 
H    -2.8400636   -2.5856763   -3.0333979 
H    -0.3422565   -3.1958061   -2.1522155 
H    -0.5796962   -4.9080710   -0.0599916 
H    -3.2280645   -5.3900493    0.3214849 
H     0.7276048    2.1439850    2.1799843 
H    -0.9502832   -1.4472470    3.9258681 
H     1.5433736   -1.8848619    3.5366126 
H     1.0844516   -2.2506792   -0.7535164 
H    -3.7818428    0.7953722   -0.6380098 
C    -3.1296834    1.4366267    1.3124575 
H    -3.8988375    0.8669896    1.8599727 
H    -2.2299732    1.4637758    1.9471809 
H    -3.5048202    2.4607827    1.1807599 
C    -0.4589814    2.2544790    6.7284208 
F     0.2560317    1.6067011    7.6780831 
F    -0.0383434    3.5378404    6.6980242 
F    -1.7519753    2.2518626    7.1300800 
H     0.5244060    3.3044323    4.3865406 
H    -1.1455809   -0.2917241    6.1111441 
H     2.9528334   -3.9352561    3.5545060 
H     2.4909576   -4.3217829   -0.7269976 
C     3.7097343   -5.4604560    1.4150476 
F     3.2758225   -6.4105011    0.5553022 
F     4.9635977   -5.1090924    1.0151326 
F     3.8224996   -6.0218270    2.6372964 
C    -1.8629282    0.7251626   -2.8617178 
C    -1.8567006    3.3835352   -1.0714841 
C    -1.5105844    1.6602286   -4.0340476 
H    -1.5417953    1.0612036   -4.9624886 
H    -2.2376243    2.4799608   -4.1475855 
H    -0.4968563    2.0794679   -3.9509969 
C    -1.0447245    4.1264015   -2.1565757 
H    -0.9983480    5.1955338   -1.8812710 
H    -0.0151953    3.7479095   -2.2170633 
H    -1.4969057    4.0640034   -3.1543515 
C    -0.9126064   -0.4883196   -2.9052025 
H    -1.1032516   -1.0841780   -3.8170712 
H     0.1382805   -0.1562691   -2.9283382 
H    -1.0638093   -1.1290572   -2.0227750 
C    -3.3258975    0.2596487   -3.0141643 
H    -3.4525054   -0.1648046   -4.0273436 
H    -3.5879482   -0.5278552   -2.2888810 
H    -4.0425745    1.0936631   -2.9182061 
C    -3.3528207    3.7070131   -1.2707292 
H    -3.4906103    4.8033571   -1.2339626 
H    -3.7032470    3.3639334   -2.2590139 
H    -4.0072553    3.2678961   -0.5022048 
C    -1.3061085    3.9067257    0.2819275 
H    -1.5236331    4.9878228    0.3560109 
H    -1.7282839    3.4182792    1.1685780 
H    -0.2083076    3.7807626    0.3159904 
