94
Energy =
C    -1.5588336    2.2091708    1.1789708 
C    -0.6299127    1.9039877    2.2018413 
C     0.7727016    2.0660183    1.9837148 
H    -0.9776777    1.3920712    3.1074211 
Pd   -0.0520270    0.6406663    0.4916324 
P     1.9935080   -0.1941633   -0.2565951 
P    -1.5889073   -0.6204698   -0.7385882 
H    -1.2170425    2.8864656    0.3808590 
H     1.0919740    2.8510356    1.2834278 
C    -5.8179370    1.6502596    1.2027741 
C    -5.1937733    2.3788582    0.1799987 
C    -3.8066679    2.5558048    0.1948536 
C    -3.0131040    2.0062090    1.2280709 
C    -3.6575387    1.2703851    2.2504604 
C    -5.0442238    1.0986313    2.2382958 
H    -6.9047342    1.5155518    1.1982518 
H    -5.7871717    2.8105218   -0.6322210 
H    -3.3236239    3.1246732   -0.6064649 
H    -3.0727077    0.8228713    3.0590238 
H    -5.5251748    0.5277288    3.0385858 
C     3.8516558    0.7310086    4.6815912 
C     2.5685842    0.1619920    4.7537072 
C     1.5589538    0.5902716    3.8877760 
C     1.8058654    1.6033979    2.9306841 
C     3.1001107    2.1646282    2.8711392 
C     4.1122052    1.7335233    3.7370257 
H     4.6419463    0.3919612    5.3592363 
H     2.3585547   -0.6240272    5.4866615 
H     0.5706868    0.1203274    3.9442158 
H     3.3137102    2.9477256    2.1363476 
H     5.1085399    2.1823982    3.6697624 
Fe    0.6632922   -2.0087939   -2.7707965 
C     1.9821273   -0.7113482   -1.9968726 
C     1.1756067   -0.0658358   -3.0116922 
H     0.5110921    0.7861397   -2.8505773 
C     1.3741685   -0.7735422   -4.2418507 
H     0.8820634   -0.5528433   -5.1907200 
C     2.2958333   -1.8465928   -4.0013208 
H     2.6253953   -2.5833912   -4.7362044 
C     2.6795657   -1.8144890   -2.6207049 
C    -1.0466837   -2.0548926   -1.7163061 
C    -0.1298512   -3.0665207   -1.2366665 
H     0.2825802   -3.1339227   -0.2284041 
C     0.1596731   -3.9467569   -2.3296117 
H     0.8391740   -4.8001156   -2.2959560 
C    -0.5637016   -3.4900856   -3.4811132 
H    -0.5294081   -3.9352216   -4.4770988 
C    -1.3117965   -2.3240229   -3.1124441 
H     3.3582381   -2.5020168   -2.1153643 
H    -1.9495535   -1.7249495   -3.7642676 
C     2.5841956   -1.5957845    0.6999304 
C     2.0301940   -2.2312948    1.7905854 
C     2.9358298   -3.2736115    2.1621136 
C     3.9938044   -3.2145839    1.2811853 
H     1.0869768   -1.9644229    2.2666785 
H     2.8270440   -3.9818490    2.9833973 
O     3.7886406   -2.1948202    0.3863935 
C     5.2489340   -4.0006847    1.1229411 
H     5.2954487   -4.4792180    0.1281147 
H     6.1378443   -3.3522127    1.2235599 
H     5.2982223   -4.7854335    1.8926682 
C     3.3579492    0.9954495   -0.1729525 
C     4.7020896    0.9175036    0.1177762 
C     5.2313494    2.2345906   -0.0656204 
C     4.1851691    3.0390543   -0.4610876 
H     5.2355756    0.0192131    0.4248616 
H     6.2640298    2.5539602    0.0763320 
O     3.0352822    2.2902017   -0.5256160 
C     4.0660143    4.4816962   -0.8127381 
H     3.7140482    4.6088386   -1.8524665 
H     3.3470927    4.9975549   -0.1503129 
H     5.0460206    4.9721712   -0.7132498 
C    -2.8375864   -1.2871592    0.3892908 
C    -2.6837892   -1.8225705    1.6520624 
C    -3.9698447   -2.3068252    2.0473013 
C    -4.8327147   -2.0354642    1.0071935 
H    -1.7551119   -1.8522194    2.2234494 
H    -4.2350160   -2.7877562    2.9887848 
C    -2.4935464    0.4092406   -1.9117691 
C    -3.7157670    0.3409822   -2.5439440 
C    -3.8102872    1.5020770   -3.3741687 
C    -2.6410925    2.2127142   -3.2079451 
H    -4.4577742   -0.4435356   -2.4032421 
H    -4.6428248    1.7836529   -4.0194022 
O    -4.1448973   -1.4248687   -0.0095093 
O    -1.8331797    1.5568110   -2.3156922 
C    -6.2902045   -2.2487790    0.7906567 
H    -6.8039435   -1.2850893    0.6225349 
H    -6.4724346   -2.8864226   -0.0929379 
H    -6.7331838   -2.7361860    1.6721961 
C    -2.1124808    3.4819851   -3.7821651 
H    -1.8916151    4.2185053   -2.9883653 
H    -1.1767754    3.3053249   -4.3429759 
H    -2.8534396    3.9189814   -4.4683349 
