134
Energy =
C    -1.3631361    0.9018062   -3.1550346 
C    -0.0818139    0.4427473   -3.5215308 
C     0.2817087   -0.9369200   -3.4165963 
H     0.6910277    1.1799208   -3.7719109 
Pd   -0.2594889   -0.1654555   -1.4002448 
P     0.4642750   -1.9215134   -0.0127057 
P    -0.9217820    1.2923808    0.3241623 
H    -2.1563955    0.1474625   -3.0379983 
H    -0.5139573   -1.6724664   -3.5899482 
C    -2.8743205    4.9193069   -3.4104241 
C    -3.6781213    3.8780708   -2.9246651 
C    -3.1708510    2.5766172   -2.8475458 
C    -1.8453221    2.2876712   -3.2469834 
C    -1.0533383    3.3464804   -3.7531889 
C    -1.5621116    4.6449373   -3.8315004 
H    -3.2698685    5.9382234   -3.4752294 
H    -4.7061809    4.0764476   -2.6054177 
H    -3.8032786    1.7709017   -2.4614372 
H    -0.0340436    3.1545197   -4.1021756 
H    -0.9367092    5.4493576   -4.2322777 
C     4.2692021   -2.4051667   -4.1515908 
C     4.0653687   -1.0435773   -3.8717017 
C     2.7761884   -0.5578068   -3.6287018 
C     1.6541745   -1.4198689   -3.6742463 
C     1.8752704   -2.7849671   -3.9672223 
C     3.1673057   -3.2726568   -4.1969984 
H     5.2794382   -2.7850593   -4.3346498 
H     4.9188617   -0.3580631   -3.8343232 
H     2.6446270    0.4995432   -3.3764526 
H     1.0231921   -3.4700489   -4.0077574 
H     3.3133990   -4.3353827   -4.4164225 
Fe    3.9902951    0.7633649    1.6455534 
C     2.4985610   -0.1004902    0.5761832 
C     1.9551828    0.8951717    1.4955982 
C     2.5957198    2.1541354    1.1938770 
H     2.3975277    3.0918217    1.7142527 
C     3.4809104    1.9659603    0.0873725 
H     4.1161647    2.7310204   -0.3625146 
C     3.4214661    0.5882347   -0.2967265 
H     4.0123756    0.1263049   -1.0869747 
C     4.5604261   -0.2603050    3.3273041 
H     3.9408878   -0.9164422    3.9421472 
C     4.7419945    1.1552593    3.5060145 
H     4.2765384    1.7769394    4.2732489 
C     5.6419919    1.6168486    2.4884015 
H     5.9650913    2.6487446    2.3393187 
C     6.0143426    0.4906274    1.6799791 
H     6.6721503    0.5154046    0.8091450 
C     5.3477418   -0.6689698    2.2004452 
H     5.4274879   -1.6853513    1.8110117 
C     0.8443394    0.7723311    2.4842643 
C    -0.5178541    0.8965468    2.0813399 
C    -1.5467268    0.7856661    3.0348066 
H    -2.5904861    0.8554976    2.7136406 
C    -1.2477138    0.6011546    4.3913921 
H    -2.0604010    0.5168629    5.1200019 
C     0.0881265    0.5372349    4.8047042 
H     0.3338279    0.4136102    5.8643277 
C     1.1158099    0.6131859    3.8549827 
H     2.1605793    0.5500410    4.1644394 
C    -0.5380408   -2.2124189    1.5114337 
C     0.0030390   -2.3701750    2.7980246 
H     1.0748745   -2.2418633    2.9750141 
C    -0.8250639   -2.6806482    3.8917384 
C    -2.2088275   -2.8144889    3.6731956 
H    -2.8628574   -3.0400140    4.5243010 
C    -2.7761419   -2.6726960    2.3942653 
C    -1.9195725   -2.3877229    1.3172409 
H    -2.3327737   -2.3242348    0.3037603 
C     0.3564863   -3.6390439   -0.6774306 
C    -0.5023881   -3.9034355   -1.7552043 
H    -1.0352115   -3.0746795   -2.2321380 
C    -0.7066745   -5.2181243   -2.2173968 
C    -0.0324933   -6.2633605   -1.5637285 
H    -0.1808065   -7.2929019   -1.9120768 
C     0.8102062   -6.0329461   -0.4568622 
C     0.9849019   -4.7115096   -0.0132538 
H     1.5973800   -4.5269623    0.8769076 
C     2.2415570   -1.5978217    0.5366227 
H     2.3370833   -1.9952378    1.5613923 
C     3.2421690   -2.3234890   -0.3833149 
H     3.1690566   -3.4154911   -0.2866167 
H     3.0787510   -2.0685062   -1.4413112 
H     4.2647116   -2.0181771   -0.1095534 
C    -1.6016856   -5.4885502   -3.4069949 
C     1.5084620   -7.1853193    0.2306912 
C    -0.2408464   -2.8764451    5.2724416 
C    -4.2691668   -2.7835595    2.1827977 
C    -5.5294994    1.7894676    0.0546904 
C    -4.9387485    0.5309885   -0.1875723 
C    -3.5440159    0.4209086   -0.0733326 
C    -2.7494169    1.5318055    0.2813608 
C    -3.3643389    2.7729481    0.5068203 
C    -4.7633412    2.9155674    0.3973912 
H    -6.6167628    1.8953237   -0.0447927 
H    -3.0594470   -0.5355693   -0.2898659 
H    -2.7590938    3.6544982    0.7358611 
C     1.0626024    5.4554705   -0.0763777 
C     0.3004542    5.1798427    1.0779743 
C    -0.3124781    3.9197890    1.1878163 
C    -0.1856928    2.9688230    0.1544173 
C     0.5863244    3.2677507   -0.9765245 
C     1.2241611    4.5143257   -1.1076453 
H     1.5628069    6.4282403   -0.1607128 
H    -0.8600694    3.6660927    2.1027172 
H     0.7385015    2.4944295   -1.7359119 
H    -0.2330983   -3.9479117    5.5463922 
H     0.7955501   -2.5048590    5.3283523 
H    -0.8371936   -2.3481516    6.0363973 
H    -4.7473005   -3.3894474    2.9698771 
H    -4.7346017   -1.7798174    2.2028400 
H    -4.5061107   -3.2356108    1.2047379 
H    -2.3393064   -4.6807835   -3.5504419 
H    -1.0051964   -5.5623848   -4.3364986 
H    -2.1477056   -6.4402451   -3.2942743 
H     0.8134719   -8.0240961    0.4091172 
H     2.3328125   -7.5727244   -0.3966447 
H     1.9376245   -6.8797481    1.1990727 
C    -5.7898973   -0.6558842   -0.5821673 
H    -6.4319272   -0.4142803   -1.4477410 
H    -5.1696306   -1.5280075   -0.8463164 
H    -6.4594944   -0.9553761    0.2444469 
C    -5.4038612    4.2659426    0.6297581 
H    -4.9087557    5.0449826    0.0227752 
H    -6.4759904    4.2571843    0.3748291 
H    -5.3092987    4.5698199    1.6883947 
C     0.1506184    6.2169472    2.1692672 
H    -0.2253557    5.7692650    3.1040240 
H     1.1118444    6.7147796    2.3848269 
H    -0.5624450    7.0053592    1.8633772 
C     2.0611566    4.8254792   -2.3278427 
H     1.4511628    5.3254479   -3.1035273 
H     2.8989998    5.5001662   -2.0843864 
H     2.4761776    3.9052228   -2.7737204 
