90
Energy =
C     2.9801815    0.4521450   -0.6783529 
C     2.8888556    0.1346356    0.6857849 
C     2.4509315   -1.1658114    1.1073450 
H     3.0963717    0.9059205    1.4384842 
Pd    0.7672924   -0.1503801    0.0782202 
P    -0.7400412   -1.9477869    0.4001085 
P    -0.6276975    1.5647402   -0.8159676 
H     2.8433900   -0.3762444   -1.3907322 
H     2.7146847   -1.9981476    0.4428523 
C     4.7103590    3.9378935   -2.4880423 
C     4.0709683    2.9653179   -3.2734045 
C     3.5101416    1.8364506   -2.6669119 
C     3.5569686    1.6653919   -1.2616449 
C     4.2145711    2.6511665   -0.4858840 
C     4.7873459    3.7711181   -1.0945246 
H     5.1604704    4.8166973   -2.9608410 
H     4.0215861    3.0821320   -4.3607392 
H     3.0276487    1.0689917   -3.2833881 
H     4.2946206    2.5327490    0.5992088 
H     5.3018248    4.5180506   -0.4815736 
C     2.0520145   -2.2230847    5.2682076 
C     1.7476080   -0.9196287    4.8427997 
C     1.8806017   -0.5696869    3.4950829 
C     2.3213667   -1.5143121    2.5387182 
C     2.6399749   -2.8174540    2.9854439 
C     2.5043658   -3.1682943    4.3346266 
H     1.9439001   -2.4976665    6.3223895 
H     1.3974087   -0.1748604    5.5651296 
H     1.6170316    0.4443672    3.1733797 
H     3.0080894   -3.5582412    2.2686350 
H     2.7596494   -4.1821757    4.6598379 
Fe   -3.0924597   -0.5936387   -1.7407644 
C    -2.4466200   -1.7895788   -0.2413811 
C    -3.0921445   -2.5726515   -1.2785540 
H    -2.6423973   -3.3725814   -1.8669800 
C    -4.4390967   -2.1081351   -1.4253503 
H    -5.1647365   -2.4830723   -2.1492701 
C    -4.6509074   -1.0440339   -0.4916306 
H    -5.5677111   -0.4640288   -0.3730505 
C    -3.4338605   -0.8435768    0.2372359 
C    -1.8599614    0.9757471   -2.0135400 
C    -3.2380253    1.3617839   -2.2394324 
H    -3.8022464    2.1107131   -1.6838254 
C    -3.7599950    0.5514100   -3.3008967 
H    -4.7838145    0.5813232   -3.6783679 
C    -2.7236852   -0.3337761   -3.7447089 
H    -2.8178266   -1.0924726   -4.5235364 
C    -1.5536137   -0.0741747   -2.9610697 
C    -1.6211461    2.3470970    0.5824180 
C     0.2905487    2.9138218   -1.7526507 
H    -3.2838071   -0.1043784    1.0238350 
H    -0.5899978   -0.5794008   -3.0429351 
C    -0.1611876   -3.4988909   -0.5144663 
C    -1.0053516   -2.5035539    2.1755748 
H    -2.3940964    1.5727643    0.7344887 
H     1.0219377    2.3165982   -2.3281328 
H    -1.0622714   -4.1388610   -0.5262612 
H     0.0159015   -2.7643968    2.5086050 
C     0.2348561   -3.1621331   -1.9626794 
H     0.5091987   -4.0856588   -2.5027239 
H    -0.5842269   -2.6731781   -2.5127116 
H     1.1088020   -2.4848186   -1.9780261 
C     0.9580015   -4.2818374    0.1887515 
H     1.0894834   -5.2500920   -0.3257709 
H     1.9203909   -3.7503309    0.1297812 
H     0.7429192   -4.4927367    1.2480297 
C    -1.9225905   -3.7324997    2.2902877 
H    -2.0194206   -4.0187339    3.3528831 
H    -2.9336900   -3.5099284    1.9063465 
H    -1.5320772   -4.6084702    1.7460528 
C    -1.5008425   -1.3414334    3.0541139 
H    -1.3924568   -1.6147543    4.1176971 
H    -0.9166731   -0.4231113    2.8821841 
H    -2.5666109   -1.1238819    2.8709087 
C    -0.7865943    2.4477726    1.8742377 
H    -1.4456244    2.6845269    2.7283427 
H    -0.2687530    1.4966125    2.0904904 
H    -0.0262610    3.2432289    1.8068064 
C    -2.3285637    3.6792614    0.2725262 
H    -3.0113499    3.9262382    1.1054052 
H    -1.6086526    4.5086046    0.1819529 
H    -2.9254793    3.6470420   -0.6515314 
C    -0.5489188    3.7179103   -2.7591922 
H     0.1216188    4.3821829   -3.3341270 
H    -1.0711337    3.0619631   -3.4749961 
H    -1.2997386    4.3532176   -2.2617689 
C     1.0823914    3.8118789   -0.7875227 
H     1.8565699    4.3649337   -1.3456991 
H     0.4287525    4.5497723   -0.2933336 
H     1.5927608    3.2244040   -0.0063149 
