118
Energy =
C    -0.8655693   -0.0907170   -2.9698921 
C    -0.6900211    1.2932433   -2.6923020 
C     0.5932681    1.8450343   -2.5045772 
H    -1.5714148    1.9310769   -2.5524401 
Pd    0.0687042    0.2158596   -0.9150895 
P     0.9918546    1.2971726    1.0054932 
P    -0.4195949   -1.9394857   -0.0681914 
H    -0.0141512   -0.6072800   -3.4346396 
H     1.4433214    1.2582027   -2.8838553 
C    -4.7039526   -1.7717421   -3.9723551 
C    -4.6326644   -0.6233910   -3.1659912 
C    -3.3919120   -0.0882148   -2.8061623 
C    -2.1885616   -0.6754236   -3.2633264 
C    -2.2775532   -1.8256091   -4.0817618 
C    -3.5201446   -2.3717833   -4.4265231 
H    -5.6766245   -2.1920642   -4.2469144 
H    -5.5515978   -0.1478639   -2.8083365 
H    -3.3587585    0.7942446   -2.1583555 
H    -1.3606992   -2.2820222   -4.4683673 
H    -3.5642913   -3.2600711   -5.0651332 
C     1.4948420    6.0267486   -2.0287374 
C     0.2356434    5.5411135   -1.6353222 
C    -0.0763377    4.1872225   -1.7881925 
C     0.8692370    3.2795081   -2.3212460 
C     2.1231016    3.7874267   -2.7294490 
C     2.4315452    5.1463635   -2.5890353 
H     1.7373503    7.0875296   -1.9095672 
H    -0.5073706    6.2245521   -1.2111877 
H    -1.0629964    3.8286776   -1.4808775 
H     2.8602873    3.1052110   -3.1664661 
H     3.4075892    5.5184007   -2.9169187 
Fe    1.0941990   -1.4466635    3.0366688 
C     1.7698719    0.3036296    2.3207126 
C     2.7508159   -0.7377643    2.1075078 
H     3.1330651   -1.0557677    1.1387525 
C     3.1121988   -1.2899900    3.3785282 
H     3.8070322   -2.1153742    3.5424890 
C     2.3747374   -0.5941055    4.3907224 
H     2.4043959   -0.7981044    5.4626229 
C     1.5519134    0.3899016    3.7514868 
C    -0.2037926   -2.2611106    1.7178342 
C    -0.9006222   -1.5567422    2.7763556 
H    -1.5751369   -0.7101932    2.6440772 
C    -0.5444281   -2.1531235    4.0305250 
H    -0.8871625   -1.8253549    5.0134356 
C     0.3729520   -3.2218312    3.7695993 
H     0.8552290   -3.8520940    4.5189368 
C     0.5853643   -3.2964305    2.3548270 
H     0.8625489    1.0630237    4.2627248 
H     1.2444488   -4.0074220    1.8554491 
H    -2.2987628   -2.5011820   -1.4535320 
H     0.5027362   -4.1598976   -0.2972460 
H     1.8773502    3.3552738    0.0578450 
H    -0.7412174    1.2048053    2.5991820 
C    -4.6470685   -2.1744136    0.0366221 
C    -3.2193393   -1.6684374    0.3093731 
C    -2.1632704   -2.5763027   -0.3578440 
C    -2.3430388   -4.0477947    0.0765999 
C    -3.7776708   -4.5340331   -0.2047250 
C    -4.8196326   -3.6355001    0.4783697 
H    -4.8566961   -2.0945219   -1.0453077 
H    -5.3731303   -1.5209015    0.5537376 
H    -3.0565307   -1.6596269    1.4019011 
H    -3.1002887   -0.6295116   -0.0476737 
H    -1.6237080   -4.7019103   -0.4469282 
H    -2.1287927   -4.1353817    1.1592666 
H    -3.9514412   -4.5311403   -1.2988448 
H    -3.8832963   -5.5807853    0.1326229 
H    -4.7011344   -3.7077494    1.5777504 
H    -5.8408043   -3.9869795    0.2462318 
C     3.0866237   -3.9356200   -1.3570807 
C     2.1810048   -2.8588468   -0.7330635 
C     0.6888823   -3.2286102   -0.8660412 
C     0.3272545   -3.4874677   -2.3417563 
C     1.2282504   -4.5773552   -2.9505681 
C     2.7152247   -4.2117539   -2.8221079 
H     2.9875690   -4.8711197   -0.7715892 
H     4.1433978   -3.6237016   -1.2746060 
H     2.3500857   -1.8833074   -1.2338845 
H     2.4365349   -2.7190424    0.3290263 
H    -0.7333983   -3.7720884   -2.4462209 
H     0.4662833   -2.5489605   -2.9084324 
H     1.0365705   -5.5374699   -2.4325757 
H     0.9556197   -4.7312760   -4.0102180 
H     2.9215289   -3.3068032   -3.4279251 
H     3.3474273   -5.0181910   -3.2339475 
C     4.6284868    2.7944164   -0.4945266 
C     3.4475798    1.8613683   -0.1684395 
C     2.3500972    2.5653257    0.6706970 
C     2.9755644    3.1984913    1.9353868 
C     4.1383075    4.1429638    1.5736300 
C     5.2276487    3.4134212    0.7760358 
H     4.2784189    3.6071445   -1.1556190 
H     5.3940929    2.2293498   -1.0567458 
H     3.8361179    1.0004086    0.4072353 
H     3.0099995    1.4493687   -1.0954393 
H     2.2211818    3.7556339    2.5091033 
H     3.3542093    2.3942458    2.5944850 
H     3.7473559    4.9895500    0.9752177 
H     4.5555682    4.5744160    2.5011954 
H     5.6722325    2.6169339    1.4050445 
H     6.0470238    4.1064979    0.5143579 
C    -2.9983711    2.5239824    1.7375454 
C    -1.7199200    2.1819954    0.9550302 
C    -0.5065433    2.0291809    1.8985002 
C    -0.3059233    3.3162042    2.7244631 
C    -1.5903444    3.6690572    3.5018958 
C    -2.8100765    3.7976178    2.5766778 
H    -3.2525098    1.6746884    2.4032599 
H    -3.8454062    2.6386927    1.0367859 
H    -1.5101752    2.9863601    0.2277015 
H    -1.8583520    1.2508527    0.3708504 
H     0.5300752    3.2025876    3.4338641 
H    -0.0422908    4.1486159    2.0438891 
H    -1.7824420    2.8759648    4.2520204 
H    -1.4317296    4.6046999    4.0671738 
H    -2.6641383    4.6611534    1.8977782 
H    -3.7190185    4.0100119    3.1670004 
