110
Energy =
C     2.3223962    2.1615228    0.7867560 
C     2.6721377    1.8402166   -0.5408376 
C     2.0014355    2.4262365   -1.6592765 
H     3.4136353    1.0514242   -0.7211793 
Pd    0.5504189    1.2625985   -0.3755622 
P    -1.4509849    1.2229625   -1.6513699 
P    -0.0919891   -0.3115562    1.2541057 
H     1.7317592    3.0783246    0.9400012 
H     1.6312847    3.4539677   -1.5412490 
C     4.3926642    0.9086674    4.3299280 
C     3.5495775    2.0299548    4.3488016 
C     2.8515214    2.3974171    3.1931617 
C     2.9939133    1.6620027    1.9935376 
C     3.8271009    0.5175495    1.9974784 
C     4.5198472    0.1483911    3.1542917 
H     4.9432010    0.6207641    5.2314878 
H     3.4212070    2.6082188    5.2681700 
H     2.1937322    3.2732364    3.2110092 
H     3.9367053   -0.0880096    1.0925724 
H     5.1675156   -0.7343236    3.1396007 
C     3.0186798    1.2917583   -5.6944057 
C     3.0476437    0.3329840   -4.6684120 
C     2.7132681    0.6946666   -3.3595445 
C     2.3453352    2.0231000   -3.0406470 
C     2.3373927    2.9788097   -4.0820248 
C     2.6662570    2.6162315   -5.3943856 
H     3.2743100    1.0083230   -6.7203235 
H     3.3229804   -0.7027354   -4.8928104 
H     2.7186116   -0.0698446   -2.5750465 
H     2.0813819    4.0196489   -3.8552452 
H     2.6552277    3.3736588   -6.1848817 
Fe   -2.7426325   -2.5743586    0.4661266 
C    -1.8132634   -0.9108308    1.2420917 
C    -2.8576465   -0.4949976    0.3198327 
C    -4.0865114   -1.0884289    0.7931278 
C    -3.8275393   -1.8096621    2.0021428 
C    -2.4266315   -1.7189920    2.2763577 
C    -3.4446080   -4.4760380    0.6511961 
C    -3.7932437   -3.9433945   -0.6350218 
C    -2.5778832   -3.6151407   -1.3166666 
C    -1.4774125   -3.9265627   -0.4513940 
C    -2.0137485   -4.4627466    0.7646832 
C     0.1278871    0.1586553    3.0221146 
C     1.0897823   -0.4295146    3.8637834 
C     1.2170775   -0.0070341    5.1929782 
C     0.3995286    1.0176723    5.6874642 
C    -0.5622295    1.6142857    4.8548315 
C    -0.6962507    1.1851743    3.5317641 
C     0.9501864   -1.8196505    1.0386754 
C     1.8877697   -1.8612680   -0.0088261 
C     2.6421573   -3.0145618   -0.2544459 
C     2.4692039   -4.1415983    0.5621830 
C     1.5581223   -4.1049796    1.6312423 
C     0.8010952   -2.9526841    1.8652020 
C    -2.9131217    0.7731456   -0.5242215 
H    -5.0619661   -0.9644370    0.3172226 
H    -4.5587810   -2.3704904    2.5867852 
H    -1.9151455   -2.1630706    3.1317407 
H    -4.1451059   -4.8093981    1.4188607 
H    -4.8049432   -3.8087936   -1.0216420 
H    -2.5083275   -3.2188345   -2.3269850 
H    -0.4184494   -3.7942757   -0.6782471 
H    -1.4403563   -4.8004551    1.6283340 
H     1.7611194   -1.2054153    3.4886879 
H    -1.4557271    1.6466877    2.8930848 
H     2.0114484   -0.9782749   -0.6441314 
H     0.0881658   -2.9435620    2.6931547 
H    -3.7860804    0.6911231   -1.1936702 
C    -3.2017801    1.8944951    0.5122694 
H    -3.9277410    1.5207434    1.2523801 
H    -2.2801833    2.1724948    1.0524554 
H    -3.6257049    2.7982175    0.0534769 
C     0.6134204    1.5399983    7.0899528 
F    -0.5228026    2.0410671    7.6213152 
F     1.0779283    0.5802416    7.9198966 
F     1.5318023    2.5477561    7.0931232 
H     1.9668350   -0.4672009    5.8420776 
H    -1.2056574    2.4071706    5.2469972 
H     3.3641301   -3.0417596   -1.0757482 
H     1.4425313   -4.9821694    2.2745002 
C     3.2147635   -5.4221179    0.2498003 
F     3.4404533   -6.1527519    1.3639412 
F     2.4981667   -6.1945638   -0.6035669 
F     4.4076723   -5.1733648   -0.3364757 
C    -1.4694193   -0.1409242   -3.0055262 
C    -1.9445525    2.9625076   -2.3500723 
C    -0.5632059   -1.2469182   -2.4236955 
H    -0.5866619   -2.1324497   -3.0850817 
H     0.4793558   -0.8939299   -2.3721960 
H    -0.8857140   -1.5577139   -1.4171875 
C    -1.1171491    3.2998931   -3.6107914 
H    -1.1620505    4.3922441   -3.7709253 
H    -0.0607436    3.0194907   -3.5023385 
H    -1.5122496    2.8217481   -4.5165697 
C    -2.8957849   -0.6715245   -3.2577441 
H    -2.8497850   -1.4534928   -4.0384194 
H    -3.3345474   -1.1241829   -2.3541812 
H    -3.5700509    0.1189446   -3.6287291 
C    -0.8491853    0.3024339   -4.3468395 
H    -0.6550689   -0.6084200   -4.9423439 
H    -1.5300142    0.9360137   -4.9340511 
H     0.1127142    0.8224593   -4.2195081 
C    -3.4419436    3.0468462   -2.7179550 
H    -3.6440039    4.0461856   -3.1453873 
H    -3.7109017    2.3015423   -3.4852038 
H    -4.1169557    2.9190576   -1.8573106 
C    -1.5593326    4.0313248   -1.2940323 
H    -2.0663432    3.9199783   -0.3277338 
H    -0.4717442    4.0203481   -1.1090117 
H    -1.8226026    5.0268219   -1.6956771 
