132
Energy =
C     2.1140699   -1.6475669   -2.3962247 
C     2.1035516   -0.2437327   -2.5535572 
C     2.5992313    0.6311169   -1.5404113 
H     1.5887010    0.1867584   -3.4226228 
Pd    0.9063341   -0.5661423   -0.7433497 
P     0.5068302    0.7382334    1.1412652 
P    -1.0717434   -1.8249039   -0.3469683 
H     2.8361846   -2.0663474   -1.6782457 
H     3.4193646    0.2648930   -0.9062195 
C     0.8315325   -4.4213711   -5.4271944 
C     0.1781793   -3.1839765   -5.2961815 
C     0.5739637   -2.2785931   -4.3061180 
C     1.6304435   -2.5920619   -3.4201949 
C     2.2683503   -3.8465303   -3.5543360 
C     1.8791612   -4.7477466   -4.5530817 
H     0.5227636   -5.1271026   -6.2050096 
H    -0.6437693   -2.9243854   -5.9716636 
H     0.0528068   -1.3212824   -4.2095715 
H     3.0872101   -4.1082282   -2.8745582 
H     2.3929281   -5.7099830   -4.6460899 
C     2.3485470    4.9243706   -1.8519940 
C     3.4092978    4.3172955   -1.1657575 
C     3.4811148    2.9223943   -1.0645177 
C     2.4963011    2.1019038   -1.6537963 
C     1.4340714    2.7272914   -2.3494942 
C     1.3610698    4.1207724   -2.4466761 
H     2.2914146    6.0150930   -1.9284437 
H     4.1866600    4.9326211   -0.7029841 
H     4.3095936    2.4585726   -0.5199103 
H     0.6456732    2.1159687   -2.8033056 
H     0.5296475    4.5843398   -2.9885932 
Fe    1.5736429   -2.0620911    2.8209467 
C     0.3640305   -0.4457600    2.5042002 
C    -0.3907057   -1.6913165    2.4680239 
C    -0.2053717   -2.3215913    3.7531041 
C     0.6544973   -1.5067996    4.5570201 
C     1.0148681   -0.3536806    3.7922649 
C     2.3392210   -3.1981769    1.2943507 
C     3.2202985   -2.1048305    1.5812851 
C     3.6148855   -2.1938222    2.9572287 
C     2.9814037   -3.3531660    3.5198645 
C     2.1922082   -3.9741673    2.4917422 
C    -1.0458480    1.7065649    1.1600523 
C    -2.0155366    1.5108652    2.1579475 
C    -3.2540689    2.1764315    2.1070373 
C    -3.4769118    3.0865168    1.0482047 
C    -2.4992009    3.3335056    0.0536516 
C    -1.2957127    2.6157090    0.1119279 
C     1.8011120    1.9238157    1.6760419 
C     3.0870140    1.4332831    1.9793152 
C     4.1114840    2.2900456    2.4026017 
C     3.8322265    3.6749554    2.4945286 
C     2.5539560    4.1955873    2.1967873 
C     1.5470887    3.3004304    1.7909399 
C    -1.3921819   -2.2448405    1.4706892 
H    -0.6365026   -3.2814834    4.0466478 
H     1.0046518   -1.7411804    5.5638712 
H     1.6689589    0.4582059    4.1118214 
H     1.8649649   -3.3937775    0.3353261 
H     3.5321164   -1.3432602    0.8654556 
H     4.2676399   -1.4996001    3.4894317 
H     3.0666999   -3.6905342    4.5543910 
H     1.5775406   -4.8687190    2.6088172 
H    -1.8198746    0.8123186    2.9785314 
H    -0.5429487    2.7656245   -0.6694202 
H     3.2761006    0.3599746    1.9196514 
H     0.5508498    3.6981246    1.5758456 
H    -1.2374244   -3.3395447    1.4837556 
H    -1.3599943   -3.2049512   -2.2772329 
H    -2.3580772    0.1844330   -0.2921703 
C    -4.7527164    0.0951032   -1.5726502 
C    -3.8787800   -1.0969348   -1.1326347 
C    -2.4033535   -0.6548420   -1.0114107 
C    -1.9269315   -0.1208268   -2.3869498 
C    -2.8139141    1.0249018   -2.9017645 
C    -4.3000148    0.6395084   -2.9357143 
H    -4.6898977    0.8964303   -0.8098959 
H    -5.8101690   -0.2217202   -1.6154009 
H    -3.9629444   -1.8939319   -1.8948741 
H    -4.2621059   -1.5079950   -0.1875658 
H    -0.8765541    0.2244964   -2.3033662 
H    -1.9347588   -0.9538386   -3.1165344 
H    -2.6811714    1.8926527   -2.2332389 
H    -2.4673639    1.3362999   -3.9043493 
H    -4.4630817   -0.1373283   -3.7088172 
H    -4.9131964    1.5107304   -3.2284084 
C    -2.7662861   -5.5255279   -1.6621138 
C    -2.6212527   -4.2365997   -0.8290212 
C    -1.3234621   -3.4789935   -1.2038596 
C    -0.1135044   -4.4124320   -0.9950601 
C    -0.2520893   -5.7054626   -1.8172186 
C    -1.5532937   -6.4503296   -1.4851737 
H    -2.8715222   -5.2536782   -2.7308202 
H    -3.6980135   -6.0444468   -1.3735050 
H    -2.5814149   -4.5126392    0.2428038 
H    -3.5112639   -3.6058385   -0.9633061 
H     0.8141321   -3.8887644   -1.2746326 
H    -0.0362215   -4.6710987    0.0801506 
H    -0.2398891   -5.4422421   -2.8910975 
H     0.6269907   -6.3512983   -1.6409248 
H    -1.5173992   -6.8078282   -0.4367376 
H    -1.6561529   -7.3473217   -2.1214654 
C    -2.8357021   -1.9750864    1.9568673 
H    -3.1125041   -0.9157249    1.8385628 
H    -3.5639817   -2.5932531    1.4094431 
H    -2.9121594   -2.2279788    3.0282732 
C    -4.3276133    1.9082840    3.1356477 
H    -4.2231199    0.8962104    3.5603492 
H    -4.2681915    2.6244589    3.9764756 
H    -5.3285023    2.0074450    2.6843169 
C    -2.7877623    4.3209758   -1.0521949 
H    -3.7565987    4.0992204   -1.5316113 
H    -2.8572133    5.3509663   -0.6576122 
H    -1.9937662    4.3044141   -1.8156923 
O    -4.7033614    3.6968297    0.9103256 
C    -4.9247212    4.8776878    1.6965929 
H    -5.9318757    5.2358145    1.4370692 
H    -4.8807205    4.6598857    2.7798634 
H    -4.1808685    5.6606932    1.4564799 
C     5.4827110    1.7742708    2.7689776 
H     5.7632433    2.0985948    3.7858354 
H     5.5199796    0.6737350    2.7205428 
H     6.2568894    2.1710751    2.0873761 
C     2.2697152    5.6731767    2.3231586 
H     2.4774326    6.1970147    1.3706825 
H     1.2102743    5.8515426    2.5702293 
H     2.9010919    6.1275067    3.1039569 
O     4.8302888    4.4986392    2.9686333 
C     5.5665029    5.2410131    1.9896129 
H     6.3608308    5.7714061    2.5354483 
H     6.0235544    4.5681214    1.2384665 
H     4.9271600    5.9800880    1.4708082 
