106
Energy =
C    -2.7876191   -1.6644487   -1.5704647 
C    -2.3950928   -2.5313508   -0.5254219 
C    -2.3869692   -2.1065159    0.8384488 
H    -1.9232920   -3.4886938   -0.7792837 
Pd   -1.0788019   -0.7731347   -0.3514010 
P     0.2310604    0.1604477    1.3360373 
P    -0.0073697    0.5907482   -1.9051232 
H    -3.4018202   -0.7900404   -1.3036358 
H    -3.1373397   -1.3613022    1.1418693 
C    -2.8673197   -2.5803111   -5.7711509 
C    -2.5538131   -3.5910463   -4.8478396 
C    -2.5054093   -3.3058379   -3.4794889 
C    -2.7822366   -2.0033275   -3.0034337 
C    -3.0953438   -0.9951056   -3.9447654 
C    -3.1324503   -1.2802289   -5.3134849 
H    -2.9078632   -2.8062714   -6.8417248 
H    -2.3561394   -4.6102833   -5.1962297 
H    -2.2764218   -4.1125952   -2.7761362 
H    -3.2921063    0.0221712   -3.5912856 
H    -3.3697650   -0.4851038   -6.0275771 
C    -0.8695684   -4.5303282    4.0581545 
C    -0.3289219   -4.6666073    2.7687499 
C    -0.8047328   -3.8747466    1.7186507 
C    -1.8389175   -2.9327447    1.9325276 
C    -2.3570135   -2.7931204    3.2380926 
C    -1.8798784   -3.5862710    4.2887414 
H    -0.4970633   -5.1506190    4.8796686 
H     0.4687079   -5.3936582    2.5823895 
H    -0.3610937   -3.9789491    0.7222078 
H    -3.1493999   -2.0607849    3.4256437 
H    -2.2984434   -3.4640427    5.2926629 
Fe    3.4861922    0.4097930   -2.0051333 
C     1.6706454    1.1251613   -1.4608252 
C     2.4303760    0.7342724   -0.2789063 
C     3.6423845    1.5086329   -0.2862826 
C     3.6486709    2.3591478   -1.4399688 
C     2.4437394    2.1201401   -2.1760246 
C     4.7078240    0.2617141   -3.6322249 
C     5.3553207   -0.2819378   -2.4725727 
C     4.5441458   -1.3543338   -1.9754802 
C     3.3905075   -1.4689667   -2.8203681 
C     3.4926786   -0.4687332   -3.8471123 
C     2.0060810   -0.2016388    0.8353167 
H     4.4363282    1.4349923    0.4602138 
H     4.4537020    3.0354268   -1.7334401 
H     2.1567819    2.5880765   -3.1196196 
H     5.0612341    1.1067607   -4.2261866 
H     6.2897515    0.0724113   -2.0335969 
H     4.7728753   -1.9704071   -1.1050630 
H     2.5718162   -2.1809361   -2.7101715 
H     2.7667783   -0.2832209   -4.6407237 
H     2.6433526    0.0018497    1.7141123 
C     2.0994647   -1.6995914    0.4653204 
H     3.1566843   -1.9923836    0.3762798 
H     1.6165046   -2.3450568    1.2177364 
H     1.6039511   -1.8805427   -0.5029106 
C    -0.8866275    2.1672198   -2.0808867 
C    -0.5387090    3.4945910   -1.9486851 
C    -1.7367284    4.2519607   -2.1563023 
C    -2.7346265    3.3400723   -2.3901099 
H     0.4498059    3.8777600   -1.7009655 
H    -1.8421168    5.3365021   -2.1290391 
H    -3.7995690    3.4241150   -2.6026650 
O    -2.2388653    2.0690288   -2.3392908 
C     0.0739048    0.0503341   -3.6295348 
C    -0.0120271    0.7219262   -4.8323278 
C     0.1619819   -0.2618891   -5.8573295 
C     0.3280196   -1.4631372   -5.2114746 
H    -0.1832235    1.7915530   -4.9551992 
H     0.1481499   -0.1040339   -6.9358314 
H     0.4689879   -2.4874758   -5.5509255 
O     0.2752106   -1.2903276   -3.8607897 
C    -0.5189400    4.7137253    1.5896619 
C    -1.5906988    3.8420608    1.3141953 
C    -1.3132595    2.4700434    1.1971400 
C    -0.0083208    1.9766590    1.4026347 
C     1.0371155    2.8652192    1.7029978 
C     0.7964165    4.2507115    1.7783130 
H    -0.7148983    5.7909320    1.6565072 
H    -2.1195975    1.7745734    0.9304822 
H     2.0517196    2.4907996    1.8707080 
C    -0.2790269   -1.0218425    5.7902981 
C    -1.1784824   -0.1169045    5.1931075 
C    -0.9947048    0.2133004    3.8416874 
C     0.0685061   -0.3414696    3.0970051 
C     0.9408508   -1.2535305    3.7147135 
C     0.7765158   -1.6028412    5.0697745 
H    -0.4129741   -1.2883621    6.8456337 
H    -1.6801668    0.9260340    3.3704193 
H     1.7666548   -1.7074133    3.1602032 
C    -2.9990392    4.3703212    1.1593161 
H    -3.6470164    3.6447145    0.6410565 
H    -3.4464589    4.5786191    2.1493504 
H    -3.0138130    5.3141375    0.5884410 
C     1.9305881    5.2049689    2.0817412 
H     2.2326775    5.1285729    3.1427858 
H     2.8202365    4.9714301    1.4708057 
H     1.6427543    6.2513900    1.8898508 
C    -2.3378247    0.4508419    5.9809706 
H    -3.1491645   -0.2969412    6.0698300 
H    -2.0333542    0.7229936    7.0060141 
H    -2.7596615    1.3461221    5.4951186 
C     1.7315649   -2.5780253    5.7200223 
H     1.3358925   -2.9530805    6.6778034 
H     1.9196848   -3.4436673    5.0610926 
H     2.7073038   -2.0988194    5.9239093 
