94
Energy =
C    -1.7667333    2.0495926    1.2747642 
C    -0.7690059    1.7262071    2.2468577 
C     0.5740592    2.1325426    2.0584708 
H    -1.0109615    1.0185872    3.0494454 
Pd   -0.1626605    0.8443093    0.3293694 
P     1.7873778   -0.4125759    0.0724258 
P    -1.4188903    0.1702311   -1.5062679 
H    -1.6478988    2.9929988    0.7221476 
H     0.7479444    2.9730936    1.3683162 
C    -5.7404845    0.3958320    1.1516847 
C    -4.7123091   -0.3060403    1.8031991 
C    -3.4233237    0.2299271    1.8643577 
C    -3.1313765    1.4844931    1.2778703 
C    -4.1767594    2.1814513    0.6327090 
C    -5.4675283    1.6421456    0.5703020 
H    -6.7482253   -0.0289192    1.0993644 
H    -4.9164347   -1.2824156    2.2543899 
H    -2.6237942   -0.3461193    2.3418279 
H    -3.9705442    3.1514064    0.1697313 
H    -6.2630199    2.2008037    0.0660638 
C     4.0113220    1.1758120    4.4503764 
C     2.7741892    0.5814368    4.7519567 
C     1.6424111    0.8824270    3.9894859 
C     1.7221430    1.7934124    2.9099680 
C     2.9733286    2.3872357    2.6237040 
C     4.1069044    2.0801687    3.3826770 
H     4.8953919    0.9387187    5.0516142 
H     2.6922688   -0.1234915    5.5851543 
H     0.6911248    0.4030719    4.2365958 
H     3.0530855    3.0916058    1.7889444 
H     5.0660927    2.5475836    3.1385963 
Fe    1.0780536   -1.5525253   -3.0221757 
C     1.9340237   -1.7018459   -1.2054765 
C     2.9357762   -1.8114886   -2.2411352 
H     3.7868685   -1.1416657   -2.3738239 
C     2.5913154   -2.9345179   -3.0633962 
H     3.1371442   -3.2657866   -3.9487130 
C     1.3883863   -3.5213124   -2.5472779 
H     0.8601308   -4.3771704   -2.9712246 
C     0.9729683   -2.7649356   -1.4030663 
C    -0.4826214   -0.2905410   -2.9909307 
C    -0.7305828   -1.3637922   -3.9264611 
H    -1.5498769   -2.0822605   -3.8663955 
C     0.3109381   -1.3320746   -4.9112982 
H     0.4263594   -2.0352485   -5.7382710 
C     1.2001343   -0.2504131   -4.5975383 
H     2.1065911    0.0119856   -5.1459891 
C     0.7207539    0.3969726   -3.4118693 
H     0.0866123   -2.9407299   -0.7927463 
H     1.1882783    1.2389916   -2.8954318 
C     2.0400949   -1.3239504    1.6148336 
C     1.1074253   -1.9656865    2.4044851 
C     1.8432668   -2.6425158    3.4277043 
C     3.1766195   -2.3722013    3.2040660 
H     0.0274694   -1.9421529    2.2528933 
H     1.4431011   -3.2480174    4.2410292 
O     3.3018699   -1.5786658    2.0927234 
C     4.4378362   -2.7392602    3.9051973 
H     5.1164894   -3.2993075    3.2371044 
H     4.9719672   -1.8338998    4.2455112 
H     4.2116916   -3.3660263    4.7809705 
C     3.2448609    0.6223309   -0.1511953 
C     4.5940813    0.4909368    0.0950952 
C     5.2042718    1.7147178   -0.3232428 
C     4.1969862    2.5229222   -0.8059995 
H     5.0734810   -0.3777629    0.5440942 
H     6.2624394    1.9729048   -0.2748329 
O     2.9979908    1.8674531   -0.7038394 
C     4.1650124    3.8935751   -1.3896121 
H     3.7716626    3.8771723   -2.4221522 
H     3.5188214    4.5658125   -0.7963867 
H     5.1813937    4.3147180   -1.4101351 
C    -2.4363037   -1.2475054   -1.0507910 
C    -3.6077286   -1.8162862   -1.5024886 
C    -3.8764777   -2.9316783   -0.6485003 
C    -2.8582156   -2.9837162    0.2774965 
H    -4.2072643   -1.4551377   -2.3362798 
H    -4.7257145   -3.6129675   -0.7049075 
C    -2.5901048    1.4182659   -2.0973924 
C    -2.4280396    2.7775726   -2.2655619 
C    -3.6455801    3.2635377   -2.8391143 
C    -4.4778898    2.1750405   -2.9870803 
H    -1.5406618    3.3551539   -2.0036606 
H    -3.8850031    4.2929917   -3.1056140 
O    -1.9748583   -1.9641790    0.0413220 
O    -3.8341057    1.0467445   -2.5479775 
C    -2.5566713   -3.8689489    1.4373764 
H    -1.5484019   -4.3123022    1.3512267 
H    -2.5938002   -3.3030269    2.3868706 
H    -3.2947318   -4.6833413    1.4906759 
C    -5.8672048    1.9954287   -3.4930795 
H    -5.8891797    1.3135226   -4.3622913 
H    -6.5172545    1.5636032   -2.7109437 
H    -6.2825875    2.9669576   -3.8004791 
