112
Energy =
C     0.5995293    1.4579178   -2.9699680 
C     0.9692810    2.5688881   -2.1503091 
C     2.1081107    2.5019966   -1.3151397 
H     0.2800112    3.4172318   -2.0562905 
Pd    0.5996210    0.8500294   -0.8299283 
P     0.7985069    0.8030974    1.4903328 
P    -0.6072738   -1.1447837   -1.0471932 
H     1.4175182    0.8234007   -3.3435027 
H     2.8604018    1.7373285   -1.5639916 
C    -3.0411289    1.1566874   -5.2610324 
C    -3.0030551    1.9652210   -4.1118828 
C    -1.8252792    2.0811593   -3.3663704 
C    -0.6490815    1.3995934   -3.7586625 
C    -0.6974959    0.6087291   -4.9301274 
C    -1.8813373    0.4820940   -5.6691485 
H    -3.9668667    1.0618005   -5.8375041 
H    -3.9012896    2.5037582   -3.7921810 
H    -1.8246694    2.6896005   -2.4555227 
H     0.2101311    0.0966881   -5.2697835 
H    -1.8939885   -0.1379804   -6.5716476 
C     3.6816393    5.5818158    1.2402487 
C     4.3532148    4.3581244    1.0899128 
C     3.8193584    3.3632007    0.2632733 
C     2.5971547    3.5637573   -0.4218442 
C     1.9240797    4.7946264   -0.2454217 
C     2.4667861    5.7940372    0.5681966 
H     4.1041680    6.3680688    1.8743801 
H     5.3010535    4.1823238    1.6089899 
H     4.3528677    2.4145459    0.1421513 
H     0.9729537    4.9808615   -0.7534308 
H     1.9355226    6.7441693    0.6833675 
Fe   -0.1005500   -1.9647579    3.5695365 
C    -0.3144431   -0.4092540    2.2796703 
C    -0.7518171   -1.6630935    1.6767436 
C    -1.8145605   -2.1838895    2.4994003 
C    -2.0227986   -1.2907766    3.6019818 
C    -1.0976015   -0.2045721    3.4810002 
C     1.1411473   -3.5996007    3.5666145 
C     1.8811897   -2.4096240    3.8633906 
C     1.3094110   -1.8123424    5.0385137 
C     0.2157096   -2.6378178    5.4667168 
C     0.1083833   -3.7408149    4.5538165 
C     0.2442821    2.4086324    2.1875621 
C     1.1431851    3.3851513    2.6587710 
C     0.6608649    4.6141565    3.1341428 
C    -0.7113413    4.8928839    3.1209356 
C    -1.6105099    3.9360222    2.6212058 
C    -1.1388569    2.7037319    2.1562412 
C     2.4961144    0.4938621    2.1060805 
C     3.4210411   -0.1080604    1.2305153 
C     4.7136751   -0.4251487    1.6737637 
C     5.0931858   -0.1288429    2.9916454 
C     4.1752605    0.4728038    3.8686369 
C     2.8788528    0.7760203    3.4334043 
C    -0.2097368   -2.2812980    0.4102229 
H    -2.3435570   -3.1247135    2.3411308 
H    -2.7354822   -1.4358392    4.4157767 
H    -1.0029711    0.6432572    4.1609547 
H     1.3329499   -4.2782644    2.7336897 
H     2.7258336   -2.0234495    3.2918236 
H     1.6443020   -0.8940585    5.5218265 
H    -0.4364501   -2.4477675    6.3211535 
H    -0.6392493   -4.5352080    4.5929058 
H     2.2211905    3.2025372    2.6475833 
H    -1.8474513    1.9602844    1.7805027 
H     3.1200742   -0.3284435    0.1987417 
H     2.1613742    1.2252886    4.1272612 
H     0.8938435   -2.2069373    0.4486084 
C    -0.5870251   -3.7642571    0.2516760 
H    -0.3350986   -4.2961429    1.1844536 
H    -1.6600018   -3.9087994    0.0589951 
H    -0.0241172   -4.2332556   -0.5695262 
H     1.3727062    5.3584865    3.5043224 
H    -2.6847546    4.1474789    2.5994340 
H     5.4253987   -0.8980961    0.9892006 
H     4.4690305    0.6977681    4.8991194 
H    -1.0819994    5.8536027    3.4929337 
H     6.1033728   -0.3696706    3.3382373 
H    -0.1308834   -1.1602226   -3.3325071 
C    -0.3433882   -3.5730432   -4.5672496 
C    -0.9115898   -3.1379972   -3.2011654 
C    -0.0528059   -1.9969104   -2.6141884 
C     1.4412419   -2.3811476   -2.5151326 
C     1.9838547   -2.8274337   -3.8846384 
C     1.1386493   -3.9696960   -4.4721066 
H    -0.4538251   -2.7346899   -5.2834159 
H    -0.9438315   -4.4098168   -4.9665135 
H    -0.9336408   -4.0052543   -2.5178923 
H    -1.9530382   -2.7975469   -3.3309255 
H     2.0236121   -1.5213602   -2.1280718 
H     1.5709971   -3.2061974   -1.7882479 
H     1.9671882   -1.9631637   -4.5784241 
H     3.0405830   -3.1346112   -3.7872834 
H     1.2374718   -4.8644582   -3.8259039 
H     1.5228307   -4.2563244   -5.4671029 
H    -2.5414150   -0.5264848   -2.2471092 
C    -4.3252212    0.7588404   -0.5557057 
C    -2.8603246    0.3649687   -0.3041894 
C    -2.4446020   -0.8372176   -1.1852544 
C    -3.3874016   -2.0336167   -0.9240735 
C    -4.8509886   -1.6352095   -1.1953269 
C    -5.2734159   -0.4313257   -0.3383328 
H    -4.4230260    1.1218948   -1.5969991 
H    -4.6012192    1.6016447    0.1040492 
H    -2.7269171    0.0894642    0.7596722 
H    -2.1881239    1.2202276   -0.5031230 
H    -3.1120609   -2.9043573   -1.5408234 
H    -3.2888659   -2.3366086    0.1344734 
H    -4.9638988   -1.3842987   -2.2684598 
H    -5.5103187   -2.5000336   -1.0005189 
H    -5.2542570   -0.7219703    0.7307009 
H    -6.3138188   -0.1412040   -0.5694975 
