124
Energy =
C     3.0534769    0.4043548    1.4634058 
C     3.5243880   -0.1455715    0.2407179 
C     3.3034839    0.5257313   -0.9915429 
H     3.9444492   -1.1591027    0.2397138 
Pd    1.3397955    0.0257731    0.0337888 
P    -0.1470115    0.0145884   -1.7684245 
P    -0.3658796   -0.0555116    1.6457196 
H     2.9109978    1.4951305    1.4998524 
H     3.1206469    1.6091394   -0.9285965 
C     3.4198886   -1.4080864    5.3503175 
C     3.4327274   -0.0130818    5.2045859 
C     3.3130154    0.5617292    3.9333464 
C     3.1884691   -0.2459093    2.7799946 
C     3.1981136   -1.6502434    2.9421546 
C     3.3060675   -2.2235577    4.2122689 
H     3.5020639   -1.8593064    6.3444811 
H     3.5333571    0.6312539    6.0842355 
H     3.3156976    1.6513229    3.8243188 
H     3.0947198   -2.2998048    2.0677137 
H     3.2904218   -3.3131299    4.3173336 
C     4.6335219   -0.7343409   -4.8852825 
C     4.0461710    0.5253170   -4.7003388 
C     3.6122139    0.9144194   -3.4285350 
C     3.7428913    0.0532039   -2.3145368 
C     4.3239438   -1.2196406   -2.5232074 
C     4.7715245   -1.6030976   -3.7907002 
H     4.9797000   -1.0409231   -5.8775408 
H     3.9308789    1.2092190   -5.5470465 
H     3.1758188    1.9099193   -3.2908110 
H     4.4332368   -1.9180823   -1.6883831 
H     5.2246993   -2.5895644   -3.9278700 
Fe   -3.5315750   -1.3992799   -1.6539858 
C    -1.5293893   -1.1005839   -1.3827538 
C    -2.2261464   -1.1191160   -0.1037653 
C    -2.8937207   -2.3883870    0.0091330 
C    -2.6236799   -3.1508433   -1.1763566 
C    -1.7975981   -2.3623735   -2.0428809 
C    -4.5323565   -1.3980104   -3.4367973 
C    -5.2702564   -2.1136948   -2.4341700 
C    -5.5362691   -1.2130251   -1.3475488 
C    -4.9659422    0.0612868   -1.6808232 
C    -4.3482353   -0.0539456   -2.9749091 
C    -2.1281224   -0.0374742    0.9323455 
H    -3.5204148   -2.7073215    0.8429437 
H    -3.0165539   -4.1438674   -1.4014072 
H    -1.4251318   -2.6574741   -3.0238187 
H    -4.1630104   -1.8077152   -4.3784811 
H    -5.5562254   -3.1661838   -2.4777055 
H    -6.0682467   -1.4583715   -0.4265285 
H    -5.0093161    0.9561262   -1.0572037 
H    -3.8218469    0.7354155   -3.5139487 
H    -2.1617902    0.9378518    0.4198030 
C    -3.2233597   -0.0743319    2.0021967 
H    -4.2096171   -0.0036591    1.5101768 
H    -3.1943086   -1.0101940    2.5840337 
H    -3.1184760    0.7725325    2.7006309 
C    -0.4452159   -3.5901111    4.7170120 
C    -0.9365067   -2.3148411    5.0550935 
C    -0.9069849   -1.2740048    4.1247723 
C    -0.3788278   -1.4602023    2.8265975 
C     0.0749886   -2.7539064    2.4475995 
C     0.0335904   -3.7807615    3.4096887 
H    -1.3472584   -2.1327753    6.0543736 
H    -1.3079498   -0.2982988    4.4131505 
H     0.3946313   -4.7751940    3.1203280 
C     0.0039067    4.0545053    3.7502207 
C    -0.5610134    3.9634463    2.4641834 
C    -0.6851680    2.6913820    1.8777130 
C    -0.2734064    1.5303609    2.5667352 
C     0.3070425    1.6542809    3.8439188 
C     0.4514077    2.9171312    4.4481137 
H     0.0986066    5.0406169    4.2210398 
H    -1.1001494    2.6209730    0.8655807 
H     0.6589369    0.7683093    4.3776222 
C    -0.4164793   -4.7084061    5.7321074 
H    -0.3464315   -5.6964976    5.2483088 
H     0.4602663   -4.5989878    6.3985075 
H    -1.3150042   -4.6941705    6.3722979 
C     0.5608011   -3.0898263    1.0575077 
H     1.1233578   -4.0375453    1.0509038 
H    -0.2854610   -3.1903449    0.3544225 
H     1.2135903   -2.2886777    0.6540006 
C    -1.0047431    5.1972008    1.7094283 
H    -1.1649181    6.0508037    2.3882427 
H    -0.2399062    5.4952701    0.9683543 
H    -1.9374252    5.0148371    1.1492172 
C     1.0974884    3.0464221    5.8102677 
H     2.1582198    3.3468596    5.7117168 
H     0.5973916    3.8161812    6.4222379 
H     1.0725645    2.0919291    6.3612650 
C     1.2608725   -1.2076350   -6.0417034 
C     0.6060087   -0.0062500   -5.8331471 
C     0.1785631    0.3566414   -4.5314698 
C     0.4217917   -0.4756822   -3.4403835 
H     1.5847846   -1.4951980   -7.0477617 
H     0.4056264    0.6688130   -6.6712324 
H    -0.3526743    1.3031661   -4.3894842 
C     1.1146359   -1.7244857   -3.6253159 
C     1.5191710   -2.0968532   -4.9581877 
C     2.1679460   -3.3507395   -5.1610977 
C     2.4064226   -4.2120763   -4.1029520 
C     2.0171698   -3.8431188   -2.7893801 
C     1.3928387   -2.6283834   -2.5590588 
H     2.4734603   -3.6235055   -6.1770778 
H     2.8989402   -5.1743284   -4.2762599 
H     2.2156046   -4.5192815   -1.9510059 
H     1.1032868   -2.3511594   -1.5416760 
C    -2.0240892    2.1410675   -1.7182322 
C    -0.7043032    1.7543526   -1.9077987 
C     0.3060917    2.7515848   -2.0873461 
C    -0.0243090    4.0927357   -2.0877541 
H    -2.7871566    1.3709664   -1.5792462 
H     1.3447945    2.4419549   -2.2320084 
H     0.7541259    4.8491331   -2.2364739 
C    -1.3708645    4.5199808   -1.8809311 
C    -2.3908528    3.5198137   -1.6846973 
C    -3.7333080    3.9413168   -1.4538288 
C    -4.0552359    5.2890050   -1.4171765 
C    -3.0498481    6.2731497   -1.6167646 
C    -1.7357780    5.8961206   -1.8464742 
H    -4.5114165    3.1847841   -1.3094077 
H    -5.0894628    5.6004943   -1.2387151 
H    -3.3189592    7.3339841   -1.5894241 
H    -0.9597180    6.6541663   -1.9983684 
