98
Energy =
C    -1.2455835   -1.5844554   -2.2000283 
C    -0.7774040   -0.3908423   -2.8019840 
C     0.6045747   -0.1528480   -2.9860856 
H    -1.4971813    0.3940340   -3.0624955 
Pd    0.0458325   -0.3428834   -0.7351910 
P     1.7765178    1.0037188    0.1676713 
P    -1.0112474   -1.0904413    1.2348997 
H    -0.5482966   -2.4349919   -2.1768834 
H     1.2620574   -1.0312412   -2.9709909 
C    -5.3741644   -2.7726214   -1.8588407 
C    -4.3419292   -3.7162304   -1.7498894 
C    -3.0063945   -3.3116882   -1.8673624 
C    -2.6679561   -1.9546885   -2.0877001 
C    -3.7243689   -1.0234372   -2.2272674 
C    -5.0585317   -1.4266650   -2.1102310 
H    -6.4192371   -3.0846923   -1.7659091 
H    -4.5768126   -4.7720382   -1.5807688 
H    -2.2073318   -4.0588155   -1.8025091 
H    -3.5064059    0.0285919   -2.4354157 
H    -5.8585051   -0.6871348   -2.2190332 
C     2.3608730    3.2523806   -4.9424436 
C     1.0169967    3.3038687   -4.5348382 
C     0.4269555    2.2034800   -3.9051992 
C     1.1686683    1.0225355   -3.6654523 
C     2.5126521    0.9780945   -4.1055723 
C     3.1045269    2.0810365   -4.7323280 
H     2.8208292    4.1171254   -5.4312349 
H     0.4273706    4.2102439   -4.7067818 
H    -0.6158713    2.2704407   -3.5803882 
H     3.0930552    0.0611789   -3.9567147 
H     4.1466889    2.0245941   -5.0629781 
Fe    0.9654520    0.5156116    3.4317459 
C    -0.0780388   -1.0652662    2.7978143 
C    -0.5232112   -0.6704058    4.1211596 
H    -1.5272837   -0.3477954    4.4001300 
C     0.5984129   -0.7449711    5.0111795 
H     0.5876180   -0.4791246    6.0696604 
C     1.7365654   -1.1938265    4.2655455 
H     2.7466463   -1.3312970    4.6550770 
C     1.3255151   -1.3992799    2.9090442 
C     1.5291063    1.6293298    1.8653226 
C     2.4897469    1.7579728    2.9456460 
H     3.5482335    1.4964387    2.9123874 
C     1.8067275    2.2661683    4.0988713 
H     2.2571827    2.4416169    5.0773390 
C     0.4316228    2.4686939    3.7536652 
H    -0.3533655    2.8259491    4.4223268 
C     0.2548545    2.0837479    2.3853475 
H     1.9618628   -1.7244956    2.0862374 
H    -0.6838130    2.1074896    1.8321711 
C     2.2307038    2.5768813   -0.7870687 
C     3.7678255    2.6502202   -0.6885016 
C     4.3031097    1.2218993   -0.8372977 
C     3.5605704    0.3368386    0.1896944 
H     1.9646082    2.3551877   -1.8340644 
H     4.1663295    3.3251937   -1.4667051 
H     4.0636271    3.0677435    0.2936966 
H     4.1109778    0.8624065   -1.8640944 
H     5.3928283    1.1601208   -0.6669452 
H     3.9227057    0.6320973    1.1886671 
C    -1.7635551   -2.8128452    1.2736257 
C    -2.9892515   -2.6313222    2.1896302 
C    -3.6867094   -1.3360995    1.7463996 
C    -2.6298461   -0.2028786    1.6425129 
H    -2.1359597   -2.9777221    0.2482068 
H    -3.6630400   -3.5037314    2.1107913 
H    -2.6653588   -2.5634682    3.2460701 
H    -4.1405493   -1.4941545    0.7498811 
H    -4.4996393   -1.0486148    2.4350455 
H    -2.4708300    0.2501704    2.6373356 
C    -2.9876998    0.9162342    0.6487597 
H    -2.1662076    1.6549190    0.6163110 
H    -3.0427579    0.4835953   -0.3645146 
C    -4.3049579    1.6271763    0.9833441 
H    -4.2819386    2.0533977    2.0028760 
H    -4.4934732    2.4535783    0.2764972 
H    -5.1630996    0.9351921    0.9260808 
C    -0.7986660   -3.9446015    1.6492329 
H    -0.3792292   -3.7556521    2.6551824 
H    -1.3914580   -4.8754643    1.7340138 
C     0.3330152   -4.1513812    0.6342684 
H    -0.0664883   -4.4073601   -0.3636697 
H     0.9411671   -3.2359257    0.5172637 
H     1.0072974   -4.9665692    0.9461602 
C     1.4881832    3.8448164   -0.3398287 
H     1.9681046    4.7048418   -0.8447134 
H     1.6448363    4.0005525    0.7436902 
C    -0.0099196    3.8391607   -0.6705540 
H    -0.4990067    2.9135377   -0.3149569 
H    -0.5259218    4.6960917   -0.2057260 
H    -0.1709222    3.8927114   -1.7596984 
C     3.8193257   -1.1774561    0.0612111 
H     3.4699904   -1.6839340    0.9781964 
H     4.9188001   -1.3051512    0.0619433 
C     3.2299074   -1.8906773   -1.1565939 
H     2.1237654   -1.8470581   -1.1331981 
H     3.5715911   -1.4407435   -2.1046920 
H     3.5230038   -2.9539187   -1.1644901 
