94
Energy =
C     0.5320303   -0.4504392   -3.0064964 
C     1.5934323    0.3633701   -2.5499883 
C     2.5743522   -0.1338087   -1.6397060 
H     1.6014664    1.4331429   -2.7968868 
Pd    0.5613095   -0.2471192   -0.7038400 
P     1.3134509   -0.3793918    1.5191898 
P    -1.7751789   -0.2929181   -0.3565246 
H     0.6699151   -1.5398924   -2.9277783 
H     2.8051710   -1.2093376   -1.6800927 
C    -2.5650295    0.6504842   -5.7793950 
C    -2.2704149   -0.6964889   -5.5251133 
C    -1.2662520   -1.0344712   -4.6114030 
C    -0.5282755   -0.0346922   -3.9379002 
C    -0.8259516    1.3198635   -4.2185527 
C    -1.8361916    1.6571366   -5.1230357 
H    -3.3538622    0.9184592   -6.4897533 
H    -2.8276088   -1.4888001   -6.0346018 
H    -1.0481279   -2.0882439   -4.4105831 
H    -0.2622626    2.1207258   -3.7306771 
H    -2.0550509    2.7111714   -5.3226444 
C     5.7639407    2.3895594   -0.2371110 
C     6.0168319    1.0600402   -0.6046219 
C     4.9687766    0.2342954   -1.0304038 
C     3.6517418    0.7314553   -1.1144720 
C     3.4055230    2.0679284   -0.7231322 
C     4.4514900    2.8884806   -0.2884533 
H     6.5833983    3.0331083    0.0992098 
H     7.0342904    0.6595718   -0.5517338 
H     5.1712168   -0.8054962   -1.3076779 
H     2.3792193    2.4548074   -0.7366891 
H     4.2437225    3.9195232    0.0164164 
Fe   -1.4739564   -2.0034905    2.5633336 
C     0.5082816   -1.7752797    2.3678859 
C     0.0597652   -2.9682399    1.6761328 
H     0.1733687   -3.1566850    0.6060770 
C    -0.5620109   -3.8351559    2.6346752 
H    -1.0277222   -4.7981828    2.4188284 
C    -0.4991936   -3.1968065    3.9160896 
H    -0.9191504   -3.5848631    4.8459161 
C     0.1561588   -1.9317733    3.7631101 
C     0.9369064    1.1223205    2.5015970 
C     1.3156703    1.2427669    3.8564406 
H     1.9017378    0.4531422    4.3378628 
C     0.9628161    2.3868257    4.5841676 
H     1.2564838    2.4721370    5.6355550 
C     0.2414896    3.4234843    3.9688945 
H    -0.0323580    4.3142550    4.5437200 
C    -0.1153564    3.3214043    2.6165061 
H    -0.6689097    4.1280549    2.1248823 
C     0.2370952    2.1780034    1.8859712 
H    -0.0443081    2.0948281    0.8317421 
C     3.0997105   -0.7043258    1.8101487 
C     3.5925267   -2.0045795    1.5696724 
H     2.9126986   -2.7990172    1.2420423 
C     4.9480002   -2.2928918    1.7732406 
H     5.3195067   -3.3075913    1.5958758 
C     5.8229454   -1.2885366    2.2165587 
H     6.8807203   -1.5169461    2.3829021 
C     5.3402268    0.0084846    2.4381911 
H     6.0202928    0.8010475    2.7658888 
C     3.9861836    0.3065010    2.2293199 
H     3.6271935    1.3272087    2.3884122 
C    -2.4774378   -0.8762258    1.2269498 
C    -2.3775172   -0.1901988    2.4995564 
H    -1.9023222    0.7767928    2.6695628 
C    -3.0071906   -1.0096175    3.4909424 
H    -3.0716653   -0.7811215    4.5562640 
C    -3.4959785   -2.1959219    2.8518529 
H    -3.9982305   -3.0297920    3.3454900 
C    -3.1778174   -2.1212172    1.4572517 
C    -2.5240139    1.3756963   -0.5285964 
C    -1.7816880    2.4061646   -1.1367202 
H    -0.7666859    2.1955294   -1.4912078 
C    -2.3259528    3.6903919   -1.2705368 
H    -1.7397923    4.4851562   -1.7436973 
C    -3.6190892    3.9540683   -0.7942175 
H    -4.0464097    4.9570856   -0.8955059 
C    -4.3631814    2.9337722   -0.1801402 
H    -5.3697749    3.1404112    0.1978938 
C    -3.8199727    1.6492146   -0.0422705 
H    -4.3991562    0.8603050    0.4493473 
C    -2.6421658   -1.3847417   -1.5562977 
C    -2.1444771   -2.6948485   -1.7206872 
H    -1.2438897   -3.0062849   -1.1792325 
C    -2.7993392   -3.5990448   -2.5669220 
H    -2.4132267   -4.6174400   -2.6804644 
C    -3.9436147   -3.1943892   -3.2732713 
H    -4.4535727   -3.8980241   -3.9393070 
C    -4.4239321   -1.8846124   -3.1333628 
H    -5.3034117   -1.5590278   -3.6982230 
C    -3.7800052   -0.9796329   -2.2765210 
H    -4.1582471    0.0425716   -2.1822294 
H     0.3173081   -1.2015278    4.5559183 
H    -3.4114349   -2.8716148    0.7011928 
