86
Energy =
C     1.3953833    1.5329859    2.2022923 
C     0.6646849    2.4903644    1.4480465 
C    -0.7465701    2.5127136    1.4444124 
H     1.2173599    3.1751929    0.7930805 
Pd    0.0847602    0.5237792    0.6128718 
P    -1.5820738    0.2515995   -1.0411557 
P     0.9629671   -1.6894441    0.7423896 
H     0.9056754    1.1187000    3.0958914 
H    -1.2558473    1.9735841    2.2576099 
C     5.6970682    1.7001212    2.3559865 
C     5.0313397    1.9226914    1.1390514 
C     3.6351475    1.8600243    1.0799886 
C     2.8730069    1.5710920    2.2350767 
C     3.5551554    1.3686177    3.4559535 
C     4.9535657    1.4294414    3.5146429 
H     6.7900074    1.7424687    2.4007089 
H     5.6050973    2.1367350    0.2313804 
H     3.1249427    2.0118832    0.1218448 
H     2.9821000    1.1750150    4.3696325 
H     5.4641181    1.2696672    4.4698338 
C    -3.2593995    5.3806968   -0.5398537 
C    -3.7861880    4.5144639    0.4303012 
C    -2.9503301    3.5959612    1.0765257 
C    -1.5734301    3.5168436    0.7606858 
C    -1.0540957    4.4106724   -0.2068408 
C    -1.8886816    5.3304502   -0.8480564 
H    -3.9104620    6.0990393   -1.0481758 
H    -4.8494485    4.5580247    0.6872781 
H    -3.3652122    2.9275325    1.8389883 
H     0.0055584    4.3740100   -0.4776941 
H    -1.4710896    6.0104819   -1.5974470 
Fe   -0.5713144   -2.7739984   -2.0920878 
C     0.1710362   -3.0020496   -0.2437662 
C     0.8078248   -3.9244690   -1.1654172 
H     1.8691077   -3.9647094   -1.4137207 
C    -0.2076201   -4.7604181   -1.7351549 
H    -0.0460966   -5.5352062   -2.4866642 
C    -1.4702473   -4.3759573   -1.1785117 
H    -2.4401996   -4.8103329   -1.4266743 
C    -1.2453133   -3.2991841   -0.2596167 
C    -1.1214019   -0.8790930   -2.3842438 
C    -1.9573880   -1.7687606   -3.1677618 
H    -3.0393195   -1.8845223   -3.0869564 
C    -1.1071895   -2.5072250   -4.0553079 
H    -1.4345348   -3.2820333   -4.7509190 
C     0.2455682   -2.0822707   -3.8433267 
H     1.1277834   -2.4778425   -4.3496077 
C     0.2434775   -1.0759540   -2.8236592 
H    -2.0083892   -2.7927487    0.3321851 
H     1.1146134   -0.5576010   -2.4172624 
C    -2.2301848    1.7289618   -2.0050402 
C    -3.6469314    1.2765727   -2.4126879 
C    -4.2936779    0.6604986   -1.1614933 
C    -3.2942240   -0.3225681   -0.4878465 
H    -2.3358491    2.5351845   -1.2623248 
H    -4.2314898    2.1351965   -2.7897137 
H    -3.5895912    0.5396070   -3.2358859 
H    -4.5252530    1.4725133   -0.4474823 
H    -5.2446187    0.1485435   -1.3903248 
H    -3.4075926   -1.3325806   -0.9193688 
C     0.9757256   -2.3528295    2.5121702 
C     2.3439584   -1.8526198    3.0468788 
C     3.4204210   -1.8024680    1.9223031 
C     2.7904254   -2.0567856    0.5277175 
H     0.1504181   -1.8762348    3.0697268 
H     2.2210189   -0.8454375    3.4720750 
H     2.6650547   -2.5004778    3.8811124 
H     3.9216245   -0.8217831    1.9313741 
H     4.2066659   -2.5579825    2.0909382 
H     2.8017045   -3.1467902    0.3478773 
C     3.4831307   -1.3549980   -0.6432852 
H     3.3798037   -0.2604372   -0.5656877 
H     4.5613599   -1.5935576   -0.6456981 
C     0.8201223   -3.8811515    2.5810383 
H    -0.1569494   -4.2155073    2.1964438 
H     1.6055873   -4.4011984    2.0053660 
C    -1.3181959    2.2026845   -3.1378473 
H    -0.3222073    2.4907906   -2.7575302 
H    -1.7597154    3.0897232   -3.6252128 
C    -3.4544492   -0.4071661    1.0363775 
H    -2.7310534   -1.1045886    1.4937439 
H    -4.4718496   -0.7504878    1.2946775 
H     0.9037483   -4.2058788    3.6336466 
H     3.0644972   -1.6791810   -1.6114941 
H    -3.3043377    0.5809784    1.5035463 
H    -1.1826031    1.4204225   -3.9048664 
