118
Energy =
C    -0.7762582   -0.0720306   -2.9728505 
C    -0.9175460    1.2654112   -2.5365665 
C     0.1909248    2.0703268   -2.1806832 
H    -1.9284303    1.6700571   -2.4083216 
Pd    0.0026780    0.2388106   -0.7926979 
P     1.0550292    1.2644449    1.0788018 
P    -0.4062254   -1.9542213    0.0014714 
H     0.2137429   -0.3710280   -3.3468134 
H     1.1734011    1.7611533   -2.5651665 
C    -4.0278046   -2.3891454   -4.5953455 
C    -4.2989809   -1.3293002   -3.7143585 
C    -3.2531640   -0.5854696   -3.1587353 
C    -1.9056906   -0.8735915   -3.4810586 
C    -1.6523693   -1.9284900   -4.3891928 
C    -2.6984202   -2.6822732   -4.9338316 
H    -4.8485486   -2.9734222   -5.0233791 
H    -5.3344321   -1.0831332   -3.4578505 
H    -3.4896869    0.2219972   -2.4584680 
H    -0.6211315   -2.1467560   -4.6848436 
H    -2.4752085   -3.4930290   -5.6349481 
C    -0.0294703    6.2846333   -1.2978083 
C     1.1985532    5.6730347   -1.5927880 
C     1.2496430    4.3034971   -1.8777513 
C     0.0826308    3.5047377   -1.8523468 
C    -1.1492387    4.1414240   -1.5688985 
C    -1.2035573    5.5137389   -1.3020704 
H    -0.0749584    7.3566298   -1.0813890 
H     2.1182262    6.2668329   -1.6143377 
H     2.2068273    3.8398978   -2.1381501 
H    -2.0791773    3.5645938   -1.5553418 
H    -2.1684973    5.9859264   -1.0911640 
Fe    1.0579992   -1.5231012    3.1117420 
C     1.7544872    0.2124049    2.3949055 
C     2.7074991   -0.8486281    2.1500180 
H     3.0614209   -1.1634432    1.1703825 
C     3.0883479   -1.4201487    3.4067464 
H     3.7694416   -2.2613474    3.5462009 
C     2.3931834   -0.7153646    4.4419513 
H     2.4443481   -0.9273849    5.5114497 
C     1.5787801    0.2939659    3.8310015 
C    -0.2613367   -2.2853968    1.7931601 
C    -0.9321239   -1.5409018    2.8422765 
H    -1.5466327   -0.6512032    2.7050003 
C    -0.6158700   -2.1458662    4.1028953 
H    -0.9499463   -1.7937148    5.0802957 
C     0.2506466   -3.2591935    3.8573164 
H     0.6944762   -3.9079071    4.6145823 
C     0.4698012   -3.3548174    2.4451156 
H     0.9195630    0.9778911    4.3674058 
H     1.0950336   -4.1032033    1.9571677 
H    -2.2502843   -2.4561520   -1.4535023 
H     0.4090859   -4.2171514   -0.2255009 
H     2.1434124    3.2074672    0.1789223 
H    -0.0863738    2.1045179    3.0476966 
C    -4.6342553   -1.9504433   -0.0447030 
C    -3.1856011   -1.5225622    0.2524208 
C    -2.1643177   -2.5122616   -0.3516959 
C    -2.4457989   -3.9597898    0.1045923 
C    -3.8990383   -4.3636235   -0.2100093 
C    -4.9022176   -3.3886519    0.4253894 
H    -4.8150633   -1.8879374   -1.1329234 
H    -5.3330667   -1.2442044    0.4394196 
H    -3.0524167   -1.4848876    1.3486150 
H    -2.9886488   -0.5034310   -0.1311671 
H    -1.7512690   -4.6642008   -0.3868402 
H    -2.2683807   -4.0393596    1.1945196 
H    -4.0417808   -4.3737616   -1.3085639 
H    -4.0792265   -5.3942070    0.1448987 
H    -4.8142817   -3.4401110    1.5288219 
H    -5.9366972   -3.6849971    0.1760547 
C     3.0460528   -4.1161516   -1.1864871 
C     2.1781980   -3.0086463   -0.5614948 
C     0.6740745   -3.2861621   -0.7628769 
C     0.3640179   -3.4800033   -2.2582420 
C     1.2250653   -4.5973296   -2.8731067 
C     2.7234995   -4.3230529   -2.6740453 
H     2.8687623   -5.0625146   -0.6383305 
H     4.1142233   -3.8689566   -1.0493701 
H     2.4216833   -2.0307720   -1.0253185 
H     2.4020644   -2.9191206    0.5126410 
H    -0.7050390   -3.6969337   -2.4194911 
H     0.5808777   -2.5301858   -2.7794053 
H     0.9584657   -5.5629615   -2.4006181 
H     0.9859300   -4.6960907   -3.9475018 
H     3.0055275   -3.4121200   -3.2389806 
H     3.3265346   -5.1507550   -3.0874578 
C     4.6395403    2.4802352   -0.8136414 
C     3.4592547    1.5852519   -0.3900248 
C     2.5641835    2.2995243    0.6485058 
C     3.4096000    2.7127021    1.8749826 
C     4.5660447    3.6339740    1.4442812 
C     5.4603235    2.9478722    0.3992749 
H     4.2498078    3.3672129   -1.3507984 
H     5.2804321    1.9351404   -1.5298872 
H     3.8579131    0.6529430    0.0525775 
H     2.8632363    1.2836355   -1.2703415 
H     2.7868673    3.2074650    2.6404296 
H     3.8246639    1.8041952    2.3494384 
H     4.1501847    4.5701555    1.0219983 
H     5.1592835    3.9218658    2.3305861 
H     5.9533475    2.0716131    0.8644205 
H     6.2669810    3.6286506    0.0740295 
C    -2.6586377    2.8453187    2.3421066 
C    -1.6240009    2.0447218    1.5339392 
C    -0.1811382    2.3756505    1.9807452 
C     0.0850080    3.8921208    1.8512181 
C    -0.9584188    4.6992486    2.6478302 
C    -2.3977115    4.3555355    2.2331872 
H    -2.6072514    2.5353255    3.4049517 
H    -3.6770222    2.5984887    1.9905997 
H    -1.7242029    2.2859472    0.4583992 
H    -1.8178935    0.9621362    1.6239881 
H     1.0939568    4.1450057    2.2139007 
H     0.0417526    4.1856285    0.7888003 
H    -0.8291108    4.4921195    3.7287786 
H    -0.7642325    5.7778548    2.5078204 
H    -2.5589730    4.6752344    1.1859700 
H    -3.1194846    4.9168344    2.8528447 
