112
Energy =
C     1.8847968   -2.7794328    0.8422603 
C     2.4551029   -2.4654004   -0.4212477 
C     3.2282137   -1.2973810   -0.6258462 
H     2.1827075   -3.0837483   -1.2853464 
Pd    1.1131078   -0.7963214    0.0916936 
P     0.9809371    1.2681962   -1.0045776 
P    -0.9110473   -0.5050606    1.2605176 
H     2.3864645   -2.3780052    1.7360569 
H     3.7018720   -0.8507170    0.2604293 
C    -0.3617271   -6.3876007    1.5292178 
C    -0.4371660   -5.7458808    0.2804860 
C     0.2822439   -4.5699667    0.0479966 
C     1.0900708   -4.0041482    1.0625869 
C     1.1544084   -4.6578885    2.3124419 
C     0.4407491   -5.8419041    2.5410454 
H    -0.9259387   -7.3081755    1.7095780 
H    -1.0657294   -6.1638298   -0.5128308 
H     0.1925690   -4.0659569   -0.9201044 
H     1.7784019   -4.2355821    3.1082911 
H     0.5071079   -6.3365562    3.5154305 
C     5.1689175   -0.2216828   -4.3154892 
C     5.4994815    0.4259715   -3.1147308 
C     4.8499014    0.0743355   -1.9258293 
C     3.8439105   -0.9203511   -1.9109380 
C     3.5072508   -1.5468936   -3.1337934 
C     4.1726754   -1.2113597   -4.3168916 
H     5.6858823    0.0408698   -5.2442509 
H     6.2757255    1.1979489   -3.1003888 
H     5.1291776    0.5701798   -0.9911564 
H     2.7157772   -2.3018954   -3.1668674 
H     3.9023500   -1.7162543   -5.2497803 
Fe   -0.8639354    4.1134008    0.1684417 
C    -0.4926971    2.2694004   -0.6091475 
C    -1.2829105    2.1711194    0.6115778 
C    -2.4951944    2.9182025    0.3933300 
C    -2.4620226    3.4826635   -0.9241453 
C    -1.2290460    3.0975701   -1.5427194 
C    -0.9063072    6.1309259   -0.1134174 
C    -1.3219466    5.8032193    1.2207075 
C    -0.2458730    5.1027328    1.8594361 
C     0.8319179    4.9867220    0.9199867 
C     0.4241655    5.6270613   -0.2996832 
C     0.7792577    0.9637637   -2.8036233 
C     1.8185517    1.1289290   -3.7381428 
C     1.5967304    0.8328896   -5.0924513 
C     0.3548836    0.3485473   -5.5213869 
C    -0.6773368    0.1537135   -4.5876041 
C    -0.4675504    0.4591293   -3.2394897 
C     2.4312668    2.3736484   -0.7959963 
C     3.2981569    2.1741679    0.2955280 
C     4.3667003    3.0530591    0.5255130 
C     4.5865333    4.1299491   -0.3459222 
C     3.7281405    4.3326443   -1.4387877 
C     2.6490742    3.4668630   -1.6590153 
C    -0.9953177    1.3049408    1.8095450 
H    -3.2907965    3.0545160    1.1290488 
H    -3.2228782    4.1300508   -1.3638750 
H    -0.9015520    3.3592442   -2.5501766 
H    -1.5072141    6.6496254   -0.8627168 
H    -2.2932617    6.0295034    1.6643048 
H    -0.2539751    4.7266820    2.8831856 
H     1.7896434    4.4934865    1.0933516 
H     1.0175789    5.7129561   -1.2096728 
H     2.8053753    1.4766341   -3.4191264 
H    -1.2806195    0.3203011   -2.5203097 
H     3.1341701    1.3253485    0.9686714 
H     1.9725195    3.6443864   -2.5010809 
H     2.4122432    0.9733139   -5.8089045 
H    -1.6500891   -0.2314232   -4.9111095 
H     5.0305715    2.8923416    1.3812268 
H     3.8956125    5.1749197   -2.1181371 
H     0.1892487    0.1186374   -6.5789532 
H     5.4238103    4.8138094   -0.1731291 
H    -1.8626259    1.3847615    2.4849471 
C     0.2846657    1.6659022    2.5853547 
H     0.1429016    2.6140945    3.1258678 
H     0.5554313    0.8863888    3.3190475 
H     1.1337074    1.7970822    1.8961951 
H    -0.1742754   -1.6690721    3.2217557 
H    -2.1867778    0.1915775   -0.5731739 
C    -1.9429530   -3.7033935    3.8697421 
C    -1.8433612   -2.8741139    2.5770287 
C    -1.2033874   -1.4917873    2.8495580 
C    -1.9929902   -0.7414183    3.9502841 
C    -2.1122515   -1.5903470    5.2314041 
C    -2.7392098   -2.9637097    4.9530813 
H    -0.9227866   -3.9147707    4.2425160 
H    -2.3987769   -4.6822594    3.6375308 
H    -2.8621134   -2.7298676    2.1737729 
H    -1.2701378   -3.4249815    1.8167130 
H    -1.5062987    0.2152511    4.2047757 
H    -3.0060551   -0.5002152    3.5759351 
H    -1.1014314   -1.7304205    5.6631928 
H    -2.7015474   -1.0335757    5.9820290 
H    -3.7862071   -2.8292472    4.6161248 
H    -2.7796296   -3.5618327    5.8808035 
C    -4.8428846   -0.4069164   -0.3698991 
C    -3.7659407   -0.4454936    0.7306363 
C    -2.3724708   -0.6669786    0.1037131 
C    -2.3200249   -1.9417152   -0.7685052 
C    -3.4210083   -1.9054801   -1.8445475 
C    -4.8120154   -1.6829164   -1.2275010 
H    -4.6659145    0.4774574   -1.0137993 
H    -5.8387253   -0.2723471    0.0890814 
H    -3.9965592   -1.2643652    1.4360250 
H    -3.7839537    0.4937321    1.3106400 
H    -1.3220029   -2.0226025   -1.2394742 
H    -2.4481212   -2.8415807   -0.1414189 
H    -3.2060256   -1.0843551   -2.5574771 
H    -3.4004385   -2.8426361   -2.4293937 
H    -5.0736215   -2.5536068   -0.5941735 
H    -5.5780050   -1.6293458   -2.0214857 
