112
Energy =
C     2.4870037   -0.7571373   -2.1340621 
C     2.9040003    0.5756682   -1.8635992 
C     3.4105912    0.9405844   -0.5937223 
H     2.7207066    1.3516157   -2.6174054 
Pd    1.2652863    0.1486610   -0.4573762 
P     0.6980105    1.5063995    1.3575690 
P    -0.7026926   -1.1447033   -0.3123320 
H     2.9728777   -1.5537584   -1.5515994 
H     3.7789562    0.1264368    0.0483438 
C     0.9423566   -2.0271738   -5.9479285 
C     0.6136737   -0.7544873   -5.4495239 
C     1.1155329   -0.3296237   -4.2153985 
C     1.9529348   -1.1710119   -3.4472950 
C     2.2857307   -2.4418617   -3.9659690 
C     1.7869800   -2.8650807   -5.2052510 
H     0.5445606   -2.3602228   -6.9118736 
H    -0.0447098   -0.0947029   -6.0244654 
H     0.8284172    0.6512820   -3.8223096 
H     2.9432518   -3.1021053   -3.3894397 
H     2.0564961   -3.8539336   -5.5903629 
C     5.0148907    4.7766150    0.5107060 
C     5.1573825    3.6659201    1.3577601 
C     4.6160120    2.4285526    0.9903719 
C     3.9083497    2.2763099   -0.2261534 
C     3.7569702    3.4099924   -1.0592361 
C     4.3148356    4.6408322   -0.6995223 
H     5.4498855    5.7419233    0.7895327 
H     5.7005987    3.7599145    2.3035809 
H     4.7410574    1.5640441    1.6506722 
H     3.2018545    3.3331591   -1.9991588 
H     4.1954592    5.5028043   -1.3637187 
Fe   -2.4627265   -1.6594849    2.8854620 
C    -0.9819772   -1.4446917    1.4741588 
C    -0.9105533   -0.4077025    2.4983010 
C    -0.7315796   -1.0533959    3.7715968 
C    -0.7232899   -2.4695431    3.5634736 
C    -0.8924637   -2.7176151    2.1631810 
C    -3.9366608   -2.9568831    3.4621262 
C    -3.7864445   -1.9027729    4.4236030 
C    -4.0245791   -0.6551635    3.7568128 
C    -4.3148950   -0.9347425    2.3817340 
C    -4.2630680   -2.3616845    2.2005113 
C    -0.9262600    1.0720181    2.2349598 
H    -0.6638695   -0.5519523    4.7378226 
H    -0.6535219   -3.2312379    4.3422712 
H    -0.9527784   -3.7049641    1.7046586 
H    -3.8001659   -4.0230267    3.6523459 
H    -3.5116072   -2.0262056    5.4728125 
H    -3.9869285    0.3328364    4.2182621 
H    -4.5478034   -0.1930954    1.6163382 
H    -4.4436660   -2.9052863    1.2716745 
H    -1.6990275    1.2858091    1.4766786 
C    -1.1878530    1.9469015    3.4660199 
H    -2.1674330    1.6839335    3.8989627 
H    -0.4196148    1.7963363    4.2416916 
H    -1.2015842    3.0150179    3.1927574 
H    -1.6159968   -3.3492407   -0.5069715 
C     0.4031490   -5.1198131   -1.1287068 
C     0.5342419   -3.6440200   -0.7122396 
C    -0.7661519   -2.8704318   -1.0357158 
C    -1.0368831   -2.9440121   -2.5550925 
C    -1.1649546   -4.4135346   -3.0015170 
C     0.0711618   -5.2461415   -2.6244937 
H    -0.3959836   -5.5968047   -0.5266831 
H     1.3387785   -5.6585029   -0.8934346 
H     1.3590562   -3.1736014   -1.2770261 
H     0.7989233   -3.5632921    0.3560048 
H    -1.9558839   -2.4013359   -2.8259210 
H    -0.2102768   -2.4591477   -3.0986877 
H    -2.0649909   -4.8558365   -2.5297578 
H    -1.3298692   -4.4473888   -4.0934767 
H     0.9362108   -4.8909073   -3.2151983 
H    -0.0850240   -6.3056762   -2.8950965 
H    -2.3215129    0.5711900   -0.1333803 
C    -4.6556599   -0.0223302   -1.4102264 
C    -3.4932410   -0.9663282   -1.0519744 
C    -2.1777517   -0.1729033   -0.9421103 
C    -1.8623186    0.6069058   -2.2362266 
C    -3.0404798    1.5229268   -2.6158912 
C    -4.3638462    0.7442930   -2.7116136 
H    -4.8094852    0.7031719   -0.5857408 
H    -5.5925587   -0.6004722   -1.5005430 
H    -3.4077939   -1.7356227   -1.8389332 
H    -3.6796837   -1.4952502   -0.1062036 
H    -0.9391067    1.2012416   -2.0968297 
H    -1.6591544   -0.1023847   -3.0596217 
H    -3.1413352    2.3170488   -1.8483055 
H    -2.8218604    2.0356568   -3.5698003 
H    -4.3023610    0.0232406   -3.5504107 
H    -5.1952020    1.4321322   -2.9473444 
C     3.7717378    0.9635537    4.7970952 
C     3.1102483    2.1952595    4.6766533 
C     2.1802585    2.4020091    3.6479409 
C     1.9228587    1.3785598    2.7125147 
C     2.5763752    0.1349372    2.8528558 
C     3.4935772   -0.0719283    3.8913249 
H     4.4984702    0.8084728    5.6012495 
H     3.3150197    3.0004740    5.3898063 
H     1.6594368    3.3611879    3.5776225 
H     2.3604256   -0.6709696    2.1405811 
H     3.9947280   -1.0402532    3.9903950 
C     0.0209924    5.8727357   -0.0906472 
C    -0.9459382    4.8750850   -0.2983444 
C    -0.7239128    3.5761283    0.1704064 
C     0.4671882    3.2537971    0.8635157 
C     1.4438732    4.2536743    1.0424020 
C     1.2126774    5.5556912    0.5734327 
H    -0.1536892    6.8908147   -0.4533382 
H    -1.8752747    5.1082759   -0.8284258 
H    -1.4831619    2.8087267   -0.0130380 
H     2.3929689    4.0228270    1.5327797 
H     1.9820758    6.3197952    0.7233380 
