98
Energy =
C    -1.0419797   -1.8359559   -2.2245650 
C    -0.7014823   -0.6142726   -2.8512208 
C     0.6502443   -0.2058981   -2.9875874 
H    -1.5024572    0.0681602   -3.1607368 
Pd    0.0514555   -0.4081689   -0.7837457 
P     1.7346794    1.0213579    0.1079946 
P    -1.0839328   -1.0590276    1.1770807 
H    -0.2579546   -2.6053111   -2.1656261 
H     1.4112946   -0.9986301   -2.9774717 
C    -5.0319683   -3.4179773   -1.8791817 
C    -3.9210433   -4.2736975   -1.9134117 
C    -2.6300040   -3.7433707   -2.0284175 
C    -2.4198406   -2.3470727   -2.1120723 
C    -3.5524461   -1.5006924   -2.0999411 
C    -4.8415983   -2.0292605   -1.9807353 
H    -6.0419753   -3.8290754   -1.7834692 
H    -4.0595134   -5.3579573   -1.8524802 
H    -1.7679645   -4.4181589   -2.0609505 
H    -3.4243362   -0.4160850   -2.1725630 
H    -5.7045341   -1.3554241   -1.9662895 
C     1.8969655    3.4136787   -4.9547891 
C     0.6057759    3.3282694   -4.4056768 
C     0.1885541    2.1592140   -3.7626996 
C     1.0526555    1.0422035   -3.6579414 
C     2.3436451    1.1396595   -4.2261511 
C     2.7621509    2.3134078   -4.8661542 
H     2.2229285    4.3321663   -5.4530789 
H    -0.0749917    4.1832426   -4.4723338 
H    -0.8068949    2.1242554   -3.3077214 
H     3.0198308    0.2788228   -4.1749367 
H     3.7655418    2.3671791   -5.3008147 
Fe    0.9938378    0.4473894    3.3582939 
C    -0.1045828   -1.0911409    2.7085223 
C    -0.5021946   -0.7269737    4.0546563 
H    -1.4898985   -0.3883174    4.3712740 
C     0.6434821   -0.8534201    4.9069821 
H     0.6722067   -0.6178037    5.9723113 
C     1.7485542   -1.3045110    4.1134905 
H     2.7665711   -1.4730037    4.4688659 
C     1.2948791   -1.4589414    2.7638699 
C     1.5462716    1.6192362    1.8255032 
C     2.5449060    1.6484579    2.8805981 
H     3.5867766    1.3378821    2.8002023 
C     1.9222091    2.1275720    4.0790711 
H     2.4099251    2.2334664    5.0496747 
C     0.5465839    2.4017255    3.7908765 
H    -0.2015029    2.7554730    4.5023052 
C     0.3104729    2.0960014    2.4118622 
H     1.8981284   -1.7747041    1.9119870 
H    -0.6435710    2.1913730    1.8952593 
C     2.2509561    2.5615384   -0.8841960 
C     3.7887107    2.4304108   -1.0761010 
C     4.3796244    1.5268322    0.0170719 
C     3.4734122    0.2795668    0.1476722 
H     1.7601286    2.4580626   -1.8631105 
H     3.9862451    1.9929504   -2.0701225 
H     4.2619501    3.4275580   -1.0684622 
H     5.4180766    1.2281272   -0.2150288 
H     4.4097701    2.0769618    0.9733455 
H     3.5971213   -0.2096401    1.1303492 
C    -2.0459155   -2.6732994    1.3113301 
C    -3.2209593   -2.2971636    2.2372885 
C    -3.7577830   -0.9340318    1.7761576 
C    -2.5672573    0.0427762    1.5796817 
H    -2.4444034   -2.8646590    0.2999626 
H    -4.0037250   -3.0761031    2.2005701 
H    -2.8675884   -2.2446187    3.2848565 
H    -4.2755309   -1.0615556    0.8073224 
H    -4.4917328   -0.5196999    2.4885731 
H    -2.3092352    0.5206263    2.5425647 
C    -2.8224316    1.1489779    0.5383052 
H    -1.8847704    1.7042841    0.3494532 
H    -3.0843420    0.6758220   -0.4248942 
C    -3.9260686    2.1280884    0.9592011 
H    -4.0607152    2.9187697    0.2011974 
H    -4.8956679    1.6161875    1.0869111 
H    -3.6758626    2.6178759    1.9180700 
C    -1.2204771   -3.8823794    1.7755795 
H    -0.8153424   -3.6791541    2.7848713 
H    -1.9162486   -4.7356267    1.8898738 
C    -0.0829023   -4.2751072    0.8258167 
H     0.4866361   -5.1330949    1.2208179 
H    -0.4708267   -4.5554556   -0.1681595 
H     0.6256069   -3.4403931    0.6804831 
C     1.7757498    3.8905505   -0.2641193 
H     2.3211766    4.7053445   -0.7764773 
H     2.0661037    3.9473101    0.8014631 
C     0.2687891    4.1230264   -0.4298831 
H     0.0068443    4.2253561   -1.4972174 
H    -0.3190425    3.2773923   -0.0308706 
H    -0.0577985    5.0364191    0.0951282 
C     3.7253859   -0.7610227   -0.9636216 
H     4.8187568   -0.9185785   -1.0251846 
H     3.4282489   -0.3379887   -1.9406610 
C     3.0346911   -2.1090019   -0.7423214 
H     3.2168787   -2.7976918   -1.5851140 
H     3.3963201   -2.6000112    0.1787338 
H     1.9355849   -1.9798802   -0.6450244 
