122
Energy =
C    -2.0215121   -2.0849573    1.4275234 
C    -1.4086020   -1.6978752    2.6419398 
C    -1.5554813   -0.3601762    3.1124264 
H    -0.7511002   -2.3938094    3.1776482 
Pd   -0.5064179   -0.3697072    1.1429224 
P     0.5960222    1.7213202    1.2512559 
P     0.0405523   -0.9338180   -1.0915619 
H    -2.8404047   -1.4414567    1.0776383 
H    -2.4449253    0.1914967    2.7716348 
C    -2.1869771   -6.0434293   -0.2296961 
C    -3.0961466   -5.0562294   -0.6365636 
C    -3.0059209   -3.7641003   -0.1065976 
C    -2.0098534   -3.4312490    0.8430233 
C    -1.0843009   -4.4316352    1.2216590 
C    -1.1787568   -5.7230055    0.6953769 
H    -2.2495750   -7.0532125   -0.6456661 
H    -3.8745753   -5.2947996   -1.3676449 
H    -3.7359330   -3.0029249   -0.4053496 
H    -0.2790756   -4.2022280    1.9265503 
H    -0.4505578   -6.4805307    1.0006358 
C     0.0692457    1.0315871    6.8426162 
C     0.8021669    0.1196262    6.0621087 
C     0.2835109   -0.3431504    4.8490194 
C    -0.9713961    0.1114374    4.3813574 
C    -1.6916518    1.0361500    5.1692365 
C    -1.1818871    1.4810590    6.3958100 
H     0.4751759    1.3888957    7.7945025 
H     1.7836746   -0.2275029    6.4007521 
H     0.8706725   -1.0395991    4.2420245 
H    -2.6601349    1.4048326    4.8147844 
H    -1.7586321    2.1903579    6.9982116 
Fe   -3.6059827    1.9911857   -1.6999008 
C    -2.2727375    0.5224952   -1.2306217 
C    -1.7399572    1.8322967   -0.8656816 
C    -2.6792842    2.4324340    0.0542574 
H    -2.5931463    3.4253566    0.4932719 
C    -3.7658388    1.5213879    0.2657905 
H    -4.6479279    1.7100282    0.8806639 
C    -3.5218998    0.3522326   -0.5271554 
H    -4.1805481   -0.5147673   -0.6160433 
C    -4.8123229    1.5847189   -3.3020813 
H    -5.0571198    0.5964939   -3.6961794 
C    -3.7144818    2.4141318   -3.7111914 
H    -2.9884954    2.1719894   -4.4889841 
C    -3.7581058    3.6231333   -2.9382568 
H    -3.0545825    4.4555149   -2.9996848 
C    -4.8857785    3.5436815   -2.0569260 
H    -5.1807209    4.2966129   -1.3237082 
C    -5.5385515    2.2855880   -2.2823508 
H    -6.4174288    1.9152398   -1.7511863 
C    -0.4238256    2.3904253   -1.3057631 
C     0.7233833    2.4063056   -0.4589652 
C     1.9470282    2.9080267   -0.9446679 
H     2.8362235    2.8813757   -0.3088569 
C     2.0556686    3.3956875   -2.2526258 
H     3.0196085    3.7587512   -2.6217480 
C     0.9310807    3.3989631   -3.0878867 
H     1.0075960    3.7712694   -4.1134824 
C    -0.2872077    2.9018181   -2.6121890 
H    -1.1713158    2.9026979   -3.2520900 
C     1.5489353   -0.2612961   -1.9394858 
C     2.7277202   -0.2218651   -1.1731569 
H     2.7073435   -0.4730824   -0.1107030 
C     3.9470983    0.1546545   -1.7517671 
C     4.0134765    0.5124626   -3.1029622 
H     4.9653560    0.8047514   -3.5537430 
C     2.8373519    0.4923451   -3.8635451 
C     1.6165462    0.1002103   -3.2967283 
H     0.7368815    0.0804601   -3.9352388 
C     0.4143939   -2.7258514   -1.3338247 
C     1.4355283   -3.2660205   -0.5296226 
H     1.9359509   -2.6483827    0.2222922 
C     1.8138881   -4.6057365   -0.6663596 
C     1.1767053   -5.4318940   -1.6018015 
H     1.4616455   -6.4825972   -1.6983238 
C     0.1413815   -4.9019508   -2.3821972 
C    -0.2431762   -3.5587163   -2.2530502 
H    -1.0633426   -3.1891409   -2.8722308 
C    -1.5768520   -0.5838638   -2.0088623 
H    -2.1211096   -1.5143879   -1.7571511 
C    -1.6015520   -0.4221462   -3.5377628 
H    -2.6518465   -0.4574893   -3.8692844 
H    -1.1942838    0.5529655   -3.8412672 
H    -1.0485040   -1.2227916   -4.0571993 
C     2.8143656   -5.1875692    0.3059165 
F     3.4758844   -6.2409459   -0.2088163 
F     3.7239534   -4.2665656    0.7025489 
F     2.1776636   -5.6208255    1.4338631 
C    -0.5602678   -5.7834661   -3.3944760 
F    -1.8231372   -5.3494788   -3.6374404 
F     0.0940460   -5.7960802   -4.5767930 
F    -0.6422930   -7.0638648   -2.9630772 
C     5.1746822    0.2499170   -0.8741343 
F     6.3154104    0.2495882   -1.5918966 
F     5.1544811    1.4017166   -0.1469597 
F     5.2357917   -0.7740642    0.0103495 
C     2.8833150    0.9658261   -5.3003220 
F     1.7840704    0.5888771   -5.9939129 
F     2.9439898    2.3253406   -5.3553299 
F     3.9693776    0.4958731   -5.9466150 
C     4.8015281    1.0364178    3.1228245 
C     3.9642893   -0.0507051    2.8360028 
C     2.7107405    0.1730906    2.2521445 
C     2.2865536    1.4799795    1.9372581 
C     3.1263671    2.5700760    2.2515073 
C     4.3794132    2.3436860    2.8341621 
H     5.7831035    0.8664989    3.5766978 
H     4.2854946   -1.0722937    3.0623236 
H     2.0348820   -0.6681989    2.0446869 
H     2.7937767    3.5948681    2.0552215 
H     5.0296786    3.1932349    3.0662734 
C    -0.7004861    5.4207159    3.7768075 
C    -0.8088858    5.4664449    2.3788251 
C    -0.4387207    4.3572815    1.6055547 
C     0.0351095    3.1829336    2.2273264 
C     0.1670466    3.1528329    3.6320086 
C    -0.2027881    4.2659789    4.3979547 
H    -0.9858364    6.2896977    4.3786645 
H    -1.1677643    6.3745958    1.8832536 
H    -0.4910629    4.4212784    0.5145786 
H     0.5895784    2.2744038    4.1273320 
H    -0.0934193    4.2258266    5.4863282 
