122
Energy =
C     0.6147658   -0.8178121   -3.5876078 
C     0.7337963    0.5820892   -3.4391334 
C     1.7587460    1.1627287   -2.6331413 
H    -0.0544932    1.2359955   -3.8343692 
Pd    0.4621542   -0.1156253   -1.3636496 
P     1.0492967    0.8532873    0.6893202 
P    -0.9270988   -1.8459406   -0.5229466 
H     1.4885845   -1.4299123   -3.3200316 
H     2.7076249    0.6111311   -2.5476868 
C    -2.3796496   -2.8935461   -5.8684863 
C    -1.4851726   -3.6002521   -5.0506481 
C    -0.4991247   -2.9162393   -4.3323728 
C    -0.4027986   -1.5064196   -4.3977216 
C    -1.2958576   -0.8086189   -5.2462811 
C    -2.2711208   -1.4967322   -5.9742588 
H    -3.1492243   -3.4286441   -6.4340613 
H    -1.5522717   -4.6902024   -4.9741916 
H     0.1968376   -3.4747820   -3.6996547 
H    -1.2225048    0.2788491   -5.3496024 
H    -2.9472554   -0.9427067   -6.6336487 
C     2.0709524    5.4102154   -2.0005266 
C     0.8135565    4.7853816   -1.9444621 
C     0.7049048    3.4060197   -2.1527684 
C     1.8532334    2.6224702   -2.4109526 
C     3.1104905    3.2600436   -2.4610365 
C     3.2149677    4.6439572   -2.2659023 
H     2.1604574    6.4862365   -1.8233983 
H    -0.0833579    5.3778335   -1.7334338 
H    -0.2742457    2.9165364   -2.0897827 
H     4.0107249    2.6657897   -2.6492172 
H     4.1972865    5.1245991   -2.3014010 
Fe   -3.5041579    2.0589819    1.5040185 
C    -1.6494719    1.6088356    0.7714571 
C    -2.3812276    0.3926652    1.0896644 
C    -3.6096320    0.4218564    0.3312026 
H    -4.3855990   -0.3427885    0.3644843 
C    -3.6285005    1.6094634   -0.4685046 
H    -4.4372561    1.9200159   -1.1321581 
C    -2.4273468    2.3413120   -0.1979375 
H    -2.1580282    3.3145246   -0.6140701 
C    -3.5881483    2.6182330    3.4842352 
H    -2.8704508    2.4027062    4.2773850 
C    -4.7252713    1.8149885    3.1323844 
H    -5.0099844    0.8637812    3.5858494 
C    -5.4208571    2.4760810    2.0672652 
H    -6.3145562    2.1080794    1.5598461 
C    -4.7122621    3.6849168    1.7567469 
H    -4.9761536    4.3998897    0.9751797 
C    -3.5793432    3.7728761    2.6317192 
H    -2.8493171    4.5842809    2.6466124 
C    -1.8965675   -0.7553887    1.9089447 
C    -1.2248783   -1.8572642    1.3008970 
C    -0.7645910   -2.9246298    2.0966028 
H    -0.2232827   -3.7551907    1.6324816 
C    -0.9739701   -2.9235191    3.4829330 
H    -0.5987277   -3.7522658    4.0908604 
C    -1.6475527   -1.8537328    4.0863095 
H    -1.8050870   -1.8430123    5.1689512 
C    -2.1003989   -0.7853049    3.3009153 
H    -2.6278096    0.0555579    3.7578520 
C     1.5436199   -0.3974514    1.9659402 
C     2.2522349   -1.5115739    1.4808946 
H     2.4193393   -1.6258959    0.4075883 
C     2.7401597   -2.4924454    2.3531069 
C     2.5151395   -2.3886501    3.7304674 
H     2.8812618   -3.1613560    4.4121976 
C     1.7933651   -1.2899241    4.2156910 
C     1.3230487   -0.2929429    3.3507729 
H     0.7723321    0.5407829    3.7780490 
C     2.5893224    1.8858415    0.6634925 
C     2.6118348    3.2615164    0.9549281 
H     1.7058892    3.8066707    1.2239604 
C     3.8123530    3.9809491    0.8778417 
C     5.0040885    3.3524454    0.4932465 
H     5.9345446    3.9204011    0.4133776 
C     4.9766714    1.9886857    0.1779328 
C     3.7851043    1.2582189    0.2707553 
H     3.8036362    0.1933343    0.0202622 
C    -0.2854183    2.0481522    1.2619249 
H    -0.0155302    2.9124248    0.6261190 
C    -0.2356291    2.4980990    2.7344571 
H    -0.7194520    1.7540859    3.3835506 
H     0.7939507    2.6763063    3.0885878 
H    -0.8008239    3.4371556    2.8318023 
C     3.8322106    5.4587041    1.2107798 
F     4.5710774    6.1529181    0.3114010 
F     2.5849931    5.9902396    1.2123292 
F     4.3706067    5.6816782    2.4296711 
C     6.2018729    1.3016607   -0.3834545 
F     6.1108200    1.2220103   -1.7429631 
F     7.3387763    1.9603779   -0.0924898 
F     6.3156585    0.0335435    0.0735358 
C     3.4223241   -3.7203798    1.7933718 
F     2.5219886   -4.7199995    1.5894544 
F     4.0086043   -3.4643725    0.5958306 
F     4.3668101   -4.1974645    2.6266573 
C     1.5033894   -1.2061257    5.7001092 
F     2.6285218   -1.0088544    6.4179446 
F     0.6438574   -0.1999032    5.9906418 
F     0.9406364   -2.3598196    6.1443639 
C     1.1204930   -5.8934494   -1.6401361 
C    -0.2531354   -5.8720695   -1.3531492 
C    -0.8850184   -4.6735831   -0.9946530 
C    -0.1466607   -3.4739886   -0.9189098 
C     1.2298851   -3.5084380   -1.2202963 
C     1.8634600   -4.7067769   -1.5723909 
H     1.6091495   -6.8325381   -1.9189534 
H    -0.8406026   -6.7941464   -1.4120696 
H    -1.9595128   -4.6768587   -0.7958864 
H     1.8081736   -2.5783505   -1.2041546 
H     2.9359551   -4.7101851   -1.7877396 
C    -5.2202180   -2.1472117   -2.2822411 
C    -4.8887721   -2.8749039   -1.1272984 
C    -3.5990545   -2.7873779   -0.5866225 
C    -2.6277666   -1.9729812   -1.2078801 
C    -2.9740792   -1.2271219   -2.3465783 
C    -4.2630011   -1.3199507   -2.8873245 
H    -6.2291286   -2.2179231   -2.7018323 
H    -5.6395808   -3.5060984   -0.6405947 
H    -3.3603689   -3.3243184    0.3380387 
H    -2.2391421   -0.5536098   -2.7934412 
H    -4.5180395   -0.7388408   -3.7790890 
