106
Energy =
C    -3.1415551   -0.8864973   -1.3650411 
C    -3.0859072   -1.7085367   -0.2063388 
C    -2.9714750   -1.1218436    1.0828966 
H    -2.9568117   -2.7918258   -0.3196452 
Pd   -1.2485596   -0.4898996   -0.2342497 
P     0.4275567    0.0741420    1.2954524 
P    -0.1178496    0.3815511   -2.0613898 
H    -3.5502766    0.1265512   -1.2346125 
H    -3.3099247   -0.0783200    1.1801926 
C    -3.0893915   -2.1677206   -5.4718926 
C    -3.5244512   -0.8805111   -5.1269602 
C    -3.5403939   -0.4807047   -3.7852713 
C    -3.1168984   -1.3587079   -2.7613374 
C    -2.6677431   -2.6492487   -3.1261024 
C    -2.6627186   -3.0498696   -4.4648677 
H    -3.0796641   -2.4844994   -6.5198654 
H    -3.8602342   -0.1857227   -5.9038792 
H    -3.8862619    0.5242734   -3.5214774 
H    -2.3047502   -3.3404163   -2.3585477 
H    -2.3149778   -4.0536895   -4.7287026 
C    -2.7245188   -3.1315363    4.8742013 
C    -2.6282724   -1.7338727    4.7921915 
C    -2.7055353   -1.0984502    3.5498586 
C    -2.8705717   -1.8454811    2.3599576 
C    -2.9540293   -3.2533446    2.4569369 
C    -2.8914433   -3.8866066    3.7027186 
H    -2.6714489   -3.6308076    5.8470090 
H    -2.4910679   -1.1379268    5.6999555 
H    -2.6247042   -0.0071306    3.4895336 
H    -3.0956973   -3.8605899    1.5570652 
H    -2.9744229   -4.9767233    3.7606777 
Fe    3.3355589    1.1652433   -2.2711940 
C     1.4138210    1.2774227   -1.6629666 
C     2.2852910    1.0145449   -0.5243771 
C     3.2244926    2.1026601   -0.4595930 
C     2.9488256    3.0237193   -1.5210853 
C     1.8377633    2.5219156   -2.2702172 
C     3.5441856    0.4602196   -4.1737875 
C     4.5137857    1.4831380   -3.9063858 
C     5.3108887    1.0593528   -2.7904211 
C     4.8374399   -0.2279952   -2.3713999 
C     3.7430014   -0.5984514   -3.2231168 
C     2.1474794   -0.0805868    0.5057069 
H     4.0302783    2.1911694    0.2720768 
H     3.5147825    3.9291789   -1.7473451 
H     1.3839237    2.9831366   -3.1486865 
H     2.7761052    0.4875177   -4.9474959 
H     4.6090159    2.4322683   -4.4372708 
H     6.1195819    1.6273571   -2.3268847 
H     5.2406109   -0.8131438   -1.5429918 
H     3.1565723   -1.5158589   -3.1588267 
H     2.8668596    0.1208321    1.3190031 
C     2.3709029   -1.5110180   -0.0095644 
H     3.3803768   -1.5838633   -0.4426677 
H     2.2932101   -2.2443153    0.8099074 
H     1.6432685   -1.7777258   -0.7935035 
C    -1.1321526    1.6368249   -2.8794886 
C    -2.0738415    2.4974585   -2.3534661 
C    -2.5087762    3.3380692   -3.4280691 
C    -1.8020022    2.9376562   -4.5348037 
H    -2.4066740    2.5227521   -1.3161205 
H    -3.2530537    4.1334246   -3.3870445 
H    -1.7851712    3.2575494   -5.5758112 
O    -0.9550247    1.9160345   -4.2157295 
C     0.2059078   -0.8516442   -3.3488485 
C     0.2435177   -0.8616987   -4.7274922 
C     0.6313683   -2.1836258   -5.1155295 
C     0.8010345   -2.8937041   -3.9537029 
H     0.0117662   -0.0190628   -5.3753821 
H     0.7577516   -2.5606998   -6.1304526 
H     1.0793106   -3.9227084   -3.7312545 
O     0.5413383   -2.1034418   -2.8725461 
C     0.0539398    4.5681334    2.3235688 
C     1.2751099    3.9212036    2.6045936 
C     1.3884677    2.5512006    2.3146091 
C     0.3046018    1.8414145    1.7587196 
C    -0.9020741    2.5135821    1.4976961 
C    -1.0438950    3.8872130    1.7701988 
H    -0.0404224    5.6389987    2.5419359 
H     2.3345153    2.0405487    2.5245032 
H    -1.7415212    1.9543375    1.0648101 
C     0.7699576   -2.5085033    5.1082950 
C     0.5431834   -3.1236579    3.8624798 
C     0.4054069   -2.3018307    2.7315356 
C     0.5398106   -0.9023642    2.8369406 
C     0.7508646   -0.3118857    4.0972831 
C     0.8614311   -1.1112565    5.2493947 
H     0.8608337   -3.1391160    6.0012233 
H     0.1759170   -2.7550034    1.7594547 
H     0.8173856    0.7770101    4.1906627 
C     2.4360703    4.6951387    3.1885205 
H     3.2894968    4.0359819    3.4169223 
H     2.7839032    5.4711061    2.4823262 
H     2.1417990    5.2118796    4.1192609 
C    -2.3281414    4.6107469    1.4298529 
H    -3.2035724    3.9452470    1.5224900 
H    -2.4879219    5.4845893    2.0826964 
H    -2.2989462    4.9790922    0.3863737 
C     0.4619082   -4.6284252    3.7446461 
H    -0.0721453   -5.0690113    4.6032609 
H    -0.0599389   -4.9312346    2.8221090 
H     1.4749973   -5.0723016    3.7226225 
C     1.0369491   -0.4850525    6.6152216 
H     1.7872634   -1.0292836    7.2142160 
H     1.3496344    0.5695532    6.5418705 
H     0.0858112   -0.5139868    7.1800680 
