112
Energy =
C     2.6492842    1.3587726   -1.7578970 
C     1.5958223    1.2927537   -2.6925787 
C     0.4105701    2.0781022   -2.5730849 
H     1.6282798    0.5202659   -3.4719277 
Pd    0.6170405    0.7303036   -0.7980695 
P    -1.5825997    0.6767208    0.0240585 
P     1.3527655   -0.6986721    0.9027240 
H     2.6748930    2.2320965   -1.0880357 
H     0.5032332    3.0602062   -2.0865116 
C     6.3808607   -0.7626249   -2.0722653 
C     6.0384329   -0.0949678   -0.8864573 
C     4.8247348    0.5924577   -0.7940750 
C     3.9149296    0.6145391   -1.8766970 
C     4.2780342   -0.0594140   -3.0669520 
C     5.4987596   -0.7348167   -3.1638102 
H     7.3341848   -1.2953344   -2.1485598 
H     6.7196194   -0.1108234   -0.0299570 
H     4.5692433    1.1076485    0.1369424 
H     3.6153705   -0.0329720   -3.9377467 
H     5.7673643   -1.2366237   -4.0991963 
C    -2.6848514    1.7643586   -5.5577363 
C    -2.0680925    0.6027988   -5.0626601 
C    -1.0705873    0.6981426   -4.0865916 
C    -0.6722450    1.9559581   -3.5756314 
C    -1.3029507    3.1131298   -4.0791859 
C    -2.2939108    3.0182914   -5.0664100 
H    -3.4639946    1.6908590   -6.3231922 
H    -2.3687568   -0.3807980   -5.4387577 
H    -0.6081483   -0.2129646   -3.6910046 
H    -1.0049355    4.0972941   -3.7009464 
H    -2.7635420    3.9292596   -5.4516750 
Fe   -0.3787397   -3.7987884    0.9349810 
C     0.1075085   -1.8913567    1.4782854 
C    -1.2993172   -1.9571954    1.1020309 
C    -1.9195331   -2.9297853    1.9622966 
C    -0.9378292   -3.4636616    2.8573586 
C     0.3182768   -2.8469400    2.5516531 
C    -0.9668732   -5.7066387    0.4801404 
C    -0.9657183   -4.9042742   -0.7067841 
C     0.3576544   -4.3850100   -0.8909162 
C     1.1820351   -4.8776088    0.1785093 
C     0.3621281   -5.6962161    1.0222877 
C     1.8820194    0.2608581    2.3932208 
C     2.5665798    1.4736571    2.1621689 
C     3.0275827    2.2545040    3.2290435 
C     2.8026000    1.8385867    4.5502896 
C     2.1105295    0.6437087    4.7924466 
C     1.6508320   -0.1410195    3.7236625 
C     2.8098854   -1.7452378    0.5130298 
C     2.9701719   -2.1960919   -0.8111827 
C     4.0179265   -3.0644597   -1.1379424 
C     4.9200014   -3.4791940   -0.1454234 
C     4.7773894   -3.0150475    1.1709817 
C     3.7296452   -2.1432409    1.5019554 
C    -2.0793492   -1.1351394    0.0898599 
H    -2.9719103   -3.2192479    1.9204038 
H    -1.1045209   -4.2418637    3.6044187 
H     1.2771487   -3.0742756    3.0214442 
H    -1.8306638   -6.2191792    0.9075446 
H    -1.8247345   -4.7301145   -1.3553396 
H     0.6855878   -3.7384113   -1.7050704 
H     2.2379199   -4.6532084    0.3339588 
H     0.6836925   -6.1942520    1.9390385 
H     2.7172908    1.8186014    1.1348181 
H     1.0960744   -1.0577257    3.9361198 
H     2.2717063   -1.8562003   -1.5839941 
H     3.6320082   -1.7715016    2.5275222 
H     3.5539870    3.1931446    3.0278166 
H     1.9186204    0.3187332    5.8201723 
H     4.1386755   -3.4079138   -2.1696243 
H     5.4876501   -3.3274776    1.9436120 
H     3.1562938    2.4490966    5.3872854 
H     5.7421135   -4.1551651   -0.4017934 
H    -3.1317362   -1.1493169    0.4227105 
C    -2.0097764   -1.6944155   -1.3465840 
H    -2.5536950   -1.0598829   -2.0665701 
H    -0.9587286   -1.7737817   -1.6721143 
H    -2.4549427   -2.6999099   -1.3674255 
H    -2.6864550    1.1869593   -2.0672135 
H    -2.9111384    1.8851804    1.6042862 
C    -3.9416896    3.6827343   -1.8135434 
C    -2.8641772    3.0157808   -0.9390119 
C    -2.9312103    1.4726965   -1.0276836 
C    -4.3529638    0.9623312   -0.6958684 
C    -5.4149095    1.6515961   -1.5749510 
C    -5.3466754    3.1801817   -1.4527992 
H    -3.7372133    3.4574153   -2.8752972 
H    -3.8755063    4.7797917   -1.6988237 
H    -3.0250557    3.3372190    0.1072278 
H    -1.8585291    3.3662422   -1.2319155 
H    -4.4204423   -0.1295090   -0.8426697 
H    -4.5814961    1.1583121    0.3708666 
H    -5.2483664    1.3607191   -2.6307344 
H    -6.4167878    1.2792320   -1.2953093 
H    -5.5948025    3.4783127   -0.4147087 
H    -6.1022009    3.6514341   -2.1062741 
C    -1.2553246    3.4248532    3.2028788 
C    -0.9087192    2.6453800    1.9231994 
C    -1.8892416    1.4687902    1.7048573 
C    -1.9076539    0.5293848    2.9270397 
C    -2.2511209    1.3194809    4.2047517 
C    -1.2866753    2.4960581    4.4266526 
H    -2.2442865    3.9092849    3.0785266 
H    -0.5211679    4.2371709    3.3511872 
H     0.1147654    2.2387827    2.0057335 
H    -0.9090923    3.3200705    1.0490266 
H    -2.6392007   -0.2834256    2.7813521 
H    -0.9210026    0.0517714    3.0480063 
H    -3.2878644    1.7029772    4.1266103 
H    -2.2333515    0.6347955    5.0719787 
H    -0.2675902    2.1028327    4.6052398 
H    -1.5751286    3.0610751    5.3309680 
