86
Energy =
C    -1.0465058    2.7688689   -0.9936423 
C     0.2573437    2.4995916   -1.4505288 
C     0.5145080    1.5074244   -2.4548376 
H     1.1022164    2.9917107   -0.9529846 
Pd   -0.3057420    0.5476401   -0.5975106 
P    -0.3916586   -1.7781811   -1.4985983 
P    -0.4274876    0.4059015    1.8002995 
H    -1.8826102    2.3341424   -1.5636645 
H    -0.2591766    1.3683523   -3.2184710 
C    -2.2159544    5.4873374    2.1141198 
C    -3.1386353    4.5781656    1.5699749 
C    -2.7508074    3.7248410    0.5322659 
C    -1.4259891    3.7442214    0.0295875 
C    -0.5202419    4.6950101    0.5603117 
C    -0.9121133    5.5522813    1.5928504 
H    -2.5173366    6.1581973    2.9249302 
H    -4.1637069    4.5405801    1.9528104 
H    -3.4717478    3.0175581    0.1073585 
H     0.4954651    4.7685880    0.1598348 
H    -0.1994333    6.2814766    1.9916636 
C     4.4521621    0.1262380   -3.5351441 
C     4.2544687    0.7949181   -2.3155534 
C     2.9833677    1.2609084   -1.9632806 
C     1.8724873    1.0755234   -2.8245528 
C     2.0952497    0.4189203   -4.0584827 
C     3.3657411   -0.0544052   -4.4061961 
H     5.4461772   -0.2417463   -3.8082035 
H     5.0968610    0.9505684   -1.6332109 
H     2.8481964    1.7613632   -0.9981667 
H     1.2592879    0.2878912   -4.7539916 
H     3.5121693   -0.5589944   -5.3669417 
Fe    0.5631746   -1.6096101    0.6255078 
C     0.9515628   -0.6842467    2.3309754 
C     2.1197877   -0.5842910    1.4853844 
H     2.4416741    0.3435740    0.9985789 
C     3.0740015   -1.7419323    1.6824838 
H     4.0559426   -1.4950427    2.1206673 
C     2.1999795   -2.8174244    2.3976697 
H     2.6127330   -3.2740240    3.3139926 
C     0.8453646   -2.1239142    2.5336825 
C     0.9671197   -2.8430203   -0.8703170 
C     0.8647921   -3.5861264    0.3756283 
H     0.0535463   -4.2809239    0.6151796 
C     2.2130130   -3.7030363    1.0847863 
H     2.6306215   -4.7206282    1.1742726 
C     3.0865276   -2.6309824    0.3693110 
H     4.0769832   -2.9313287   -0.0120011 
C     2.1383814   -2.0215756   -0.6335665 
H     0.0134144   -2.6104562    3.0610168 
H     2.4587445   -1.2194067   -1.3097920 
C    -0.4517215   -2.0647806   -3.3704880 
C    -0.9469703   -3.5278866   -3.3822455 
C    -2.1656050   -3.6598816   -2.4253216 
C    -2.0559137   -2.6176453   -1.2716097 
H     0.5781941   -1.9782291   -3.7546409 
H    -1.2065378   -3.8384262   -4.4100770 
H    -0.1314858   -4.1871224   -3.0384676 
H    -3.1109503   -3.5051150   -2.9728650 
H    -2.2054669   -4.6799018   -2.0073437 
H    -2.7395953   -1.7708428   -1.4741939 
C    -1.9526894   -0.0905831    2.7809306 
C    -1.9591806    0.8373571    4.0390698 
C    -0.6022936    1.5486085    4.1852237 
C    -0.1627720    1.9952215    2.7791856 
H    -1.8109435   -1.1449748    3.0764465 
H    -2.7472673    1.5996768    3.9005210 
H    -2.2202489    0.2635409    4.9440400 
H    -0.6719830    2.4151436    4.8677592 
H     0.1583468    0.8616434    4.6034701 
H    -0.9041420    2.7067137    2.3724444 
C     1.2417753    2.5860843    2.6757852 
H     1.9949859    1.9035332    3.1060838 
H     1.5169316    2.7939049    1.6271495 
C    -3.2324111    0.0467323    1.9404611 
H    -3.2117416   -0.5927635    1.0429471 
H    -4.1138344   -0.2336558    2.5439243 
C    -1.3973390   -1.1220496   -4.1249789 
H    -1.4032614   -1.3902236   -5.1961436 
H    -1.0907379   -0.0694239   -4.0456768 
C    -2.3756069   -3.1474502    0.1337344 
H    -3.4655581   -3.2618709    0.2637493 
H    -2.0167344   -2.4594354    0.9230327 
H    -1.9146652   -4.1320690    0.3074723 
H    -2.4374389   -1.1961974   -3.7626231 
H    -3.3675839    1.0909599    1.6096457 
H     1.2885275    3.5409116    3.2280933 
