142
Energy =
C    -0.0435204    3.2500688    0.9296090 
C    -0.4501838    2.6717577    2.1541682 
C     0.4594243    1.9260802    2.9635471 
H    -1.5141362    2.6702058    2.4248230 
Pd    0.2592586    0.9444157    0.9832132 
P     1.0617091   -1.1640006    1.6041479 
P    -0.0777968    0.5180737   -1.3156131 
H     1.0379731    3.3677064    0.7638751 
H     1.5204010    2.2184300    2.9334576 
C    -2.4737191    5.5191764   -1.7979637 
C    -1.1342269    5.2313495   -2.0982642 
C    -0.3505515    4.5076303   -1.1938295 
C    -0.8955924    4.0357534    0.0232821 
C    -2.2408116    4.3568398    0.3238907 
C    -3.0183766    5.0904723   -0.5759796 
H    -3.0886917    6.0868657   -2.5036865 
H    -0.6933137    5.5739518   -3.0402203 
H     0.6945933    4.2919357   -1.4336616 
H    -2.6841164    4.0398405    1.2734317 
H    -4.0558338    5.3319074   -0.3240538 
C    -0.7595396   -0.1083231    6.5584939 
C    -1.5628344   -0.1783490    5.4076325 
C    -1.1759204    0.4869674    4.2389853 
C     0.0281504    1.2277195    4.1949957 
C     0.8269162    1.2891403    5.3558630 
C     0.4304266    0.6328904    6.5291094 
H    -1.0519253   -0.6408357    7.4685440 
H    -2.4919208   -0.7587358    5.4227120 
H    -1.7929330    0.4124837    3.3351841 
H     1.7672648    1.8497461    5.3348362 
H     1.0640735    0.6829477    7.4197653 
Fe   -3.0073946   -3.3638750    0.3559236 
C    -1.5262584   -2.0941410    0.9942716 
C    -1.5987737   -2.1040417   -0.4577929 
C    -2.9448118   -1.7304045   -0.8201504 
H    -3.3183224   -1.6531430   -1.8412290 
C    -3.6852194   -1.4570037    0.3741289 
H    -4.7358054   -1.1655531    0.4242667 
C    -2.8171155   -1.6840930    1.4902187 
H    -3.0877462   -1.6038046    2.5453753 
C    -2.5498673   -5.3733715    0.3397527 
H    -1.5656915   -5.8431516    0.3051354 
C    -3.3584460   -5.0244097   -0.7943648 
H    -3.0884684   -5.1503105   -1.8445598 
C    -4.5873337   -4.4695313   -0.3070357 
H    -5.4045990   -4.0852139   -0.9202339 
C    -4.5377414   -4.4712703    1.1275245 
H    -5.3127671   -4.0926153    1.7965937 
C    -3.2783883   -5.0288686    1.5273631 
H    -2.9458724   -5.1732605    2.5569119 
C    -0.4744752   -2.2999985   -1.4193980 
C     0.2886562   -1.1951455   -1.9040518 
C     1.3478350   -1.4169221   -2.8059140 
H     1.9484350   -0.5692640   -3.1524373 
C     1.6476646   -2.7112297   -3.2537491 
H     2.4797564   -2.8695676   -3.9465993 
C     0.8885715   -3.7981289   -2.8018008 
H     1.1212036   -4.8116506   -3.1412011 
C    -0.1557249   -3.5865675   -1.8918944 
H    -0.7510548   -4.4263629   -1.5256532 
C     0.9926254    1.6566056   -2.2905288 
C     0.6121358    2.1540877   -3.5503644 
H    -0.3135088    1.8137500   -4.0215382 
C     1.3809350    3.1204610   -4.2215217 
C     2.5541502    3.5968336   -3.5921540 
C     2.9804995    3.1002417   -2.3372742 
C     2.1823768    2.1355135   -1.7053217 
H     2.4793781    1.7788783   -0.7135613 
C    -1.7814630    0.8052847   -1.9218743 
C    -2.7332959    1.3877304   -1.0700141 
H    -2.4451894    1.6653109   -0.0516244 
C    -4.0623103    1.5622119   -1.4825210 
C    -4.4194937    1.1415964   -2.7838076 
C    -3.4792072    0.5663704   -3.6724097 
C    -2.1632507    0.3915404   -3.2134493 
H    -1.4373169   -0.1024869   -3.8697950 
C     2.3809046   -1.8043798    0.4687306 
C     3.2969834   -0.8475098   -0.0031970 
H     3.1662722    0.2070721    0.2537896 
C     4.3815957   -1.2224066   -0.8074560 
C     4.5592929   -2.5590799   -1.1786146 
H     5.3976422   -2.8499683   -1.8172689 
C     3.6349197   -3.5121397   -0.7296853 
C     2.5646459   -3.1485275    0.0970368 
H     1.8783399   -3.9258173    0.4208246 
C     1.9922132   -1.1825563    3.2103261 
C     3.1191386   -0.3477949    3.3184714 
H     3.4515041    0.2603019    2.4722300 
C     3.8322916   -0.2629073    4.5207772 
C     3.4496039   -1.0219002    5.6332338 
H     4.0048171   -0.9476907    6.5717763 
C     2.3229971   -1.8480497    5.5305261 
C     1.5922213   -1.9239821    4.3366172 
H     0.7014047   -2.5535864    4.3234597 
C    -0.3403714   -2.3820047    1.8930325 
H    -0.6507843   -2.0311665    2.8952936 
C     0.0442389   -3.8709962    2.0019157 
H    -0.7406935   -4.3954436    2.5673888 
H     0.0898627   -4.3299906    1.0040791 
H     1.0059451   -4.0266038    2.5192968 
C     4.9459522    0.7550061    4.6276334 
F     5.7769325    0.5009835    5.6555414 
F     5.6789084    0.8146236    3.4922815 
F     4.4228416    2.0008899    4.8223479 
C     1.8965951   -2.6667023    6.7315402 
F     0.6202496   -3.1081396    6.6114331 
F     2.6869511   -3.7505614    6.8944294 
F     1.9717433   -1.9392795    7.8724803 
C     5.3151442   -0.1554351   -1.3318483 
F     5.4761578    0.8434222   -0.4260462 
F     4.8181446    0.4141153   -2.4635118 
F     6.5321730   -0.6471399   -1.6313313 
C     3.8041831   -4.9527513   -1.1650127 
F     4.9127766   -5.5067875   -0.6308412 
F     2.7449861   -5.7179306   -0.8056514 
F     3.9249598   -5.0371081   -2.5151207 
C     0.9661106    3.6358263   -5.5798769 
H     0.3072377    4.5202928   -5.4902430 
H     1.8489698    3.9339397   -6.1683225 
H     0.4062135    2.8676966   -6.1379524 
C     4.2613194    3.6107169   -1.7247330 
H     5.1236892    3.3305017   -2.3538955 
H     4.2614520    4.7117139   -1.6519742 
H     4.4186077    3.1891269   -0.7204391 
C    -5.1091590    2.1639685   -0.5770020 
H    -5.9163757    1.4407751   -0.3614273 
H    -4.6688345    2.4809210    0.3812985 
H    -5.5854426    3.0360890   -1.0567750 
C    -3.8841661    0.1578024   -5.0699829 
H    -4.2656061   -0.8804411   -5.0942375 
H    -4.6846766    0.8147149   -5.4477104 
H    -3.0255788    0.2064772   -5.7596163 
O     3.3520668    4.5253238   -4.2183894 
O    -5.7170297    1.3573960   -3.1944533 
C     2.9252561    5.8917203   -4.1180728 
H     3.6950052    6.4941983   -4.6223321 
H     1.9504704    6.0536466   -4.6154191 
H     2.8447326    6.2050461   -3.0593699 
C    -6.5935066    0.2248314   -3.1284902 
H    -6.6456442   -0.1788458   -2.0985685 
H    -7.5882181    0.5837511   -3.4316747 
H    -6.2721342   -0.5824093   -3.8131845 
