112
Energy =
C     2.2654913    2.4642769    0.3224137 
C     1.0582518    3.1088145    0.7072526 
C     0.3820083    2.7639249    1.9032572 
H     0.5731766    3.7918304   -0.0003681 
Pd    0.5941380    0.9619189    0.4962012 
P    -1.3072344   -0.3336148    0.9623250 
P     1.6074772   -0.5702095   -0.9322742 
H     2.8902603    2.0551912    1.1287564 
H     0.9782518    2.2703999    2.6858609 
C     4.4602655    3.3336510   -3.2784496 
C     5.0736681    2.6644306   -2.2092328 
C     4.3427373    2.3701629   -1.0511438 
C     2.9823919    2.7383189   -0.9381421 
C     2.3695030    3.3829728   -2.0384622 
C     3.1033305    3.6862959   -3.1886634 
H     5.0329098    3.5743588   -4.1800880 
H     6.1293307    2.3799583   -2.2702885 
H     4.8316822    1.8585064   -0.2154434 
H     1.3068156    3.6431974   -2.0013299 
H     2.6113483    4.1909923   -4.0261497 
C    -3.1982336    4.6218384    3.4168292 
C    -2.4149733    3.7949187    4.2361660 
C    -1.2535675    3.2010655    3.7285328 
C    -0.8546324    3.4032060    2.3859353 
C    -1.6549704    4.2413475    1.5741256 
C    -2.8050812    4.8497513    2.0876824 
H    -4.1027131    5.0946247    3.8124988 
H    -2.7020493    3.6227974    5.2786471 
H    -0.6341810    2.5790227    4.3829056 
H    -1.3810822    4.4195547    0.5293690 
H    -3.4027280    5.5054669    1.4460656 
Fe    0.1041513   -3.5072662   -2.2840158 
C     0.8593784   -2.2357624   -0.9052029 
C    -0.5367712   -2.5382233   -0.6202827 
C    -0.6363350   -3.9674082   -0.4484653 
C     0.6630824   -4.5443188   -0.6180205 
C     1.5867118   -3.4903955   -0.9014110 
C    -1.3341687   -4.0945340   -3.6008554 
C    -0.8956423   -2.7592645   -3.8978824 
C     0.5145603   -2.8055363   -4.1677429 
C     0.9486986   -4.1646504   -4.0290329 
C    -0.1925393   -4.9629944   -3.6787628 
C     3.3572754   -0.9363498   -0.5183569 
C     3.7974120   -0.6567171    0.7912672 
C     5.1057317   -0.9671828    1.1863393 
C     5.9899908   -1.5636361    0.2755364 
C     5.5523122   -1.8742535   -1.0212683 
C     4.2409997   -1.5750185   -1.4156989 
C     1.5080425    0.1024317   -2.6403523 
C     2.6113054    0.3203460   -3.4854646 
C     2.4188550    0.8305263   -4.7785301 
C     1.1329766    1.1461296   -5.2359531 
C     0.0320660    0.9776142   -4.3803835 
C     0.2201091    0.4689170   -3.0907818 
C    -1.6692099   -1.5546787   -0.4490431 
H    -1.5504959   -4.5257551   -0.2451049 
H     0.9017829   -5.6082816   -0.5744229 
H     2.6565312   -3.6091430   -1.0705267 
H    -2.3521264   -4.3987412   -3.3497397 
H    -1.5217773   -1.8656292   -3.9187479 
H     1.1457140   -1.9516407   -4.4167731 
H     1.9709686   -4.5275452   -4.1499373 
H    -0.1898919   -6.0372860   -3.4855603 
H     3.1039633   -0.1976410    1.5049423 
H     3.9055398   -1.8545576   -2.4188839 
H     3.6279735    0.1295790   -3.1371616 
H    -0.6420466    0.3592218   -2.4242072 
H    -1.6723376   -0.8812918   -1.3243011 
C    -3.0323295   -2.2629350   -0.3866510 
H    -3.1062794   -2.9663508   -1.2341245 
H    -3.1598046   -2.8365597    0.5466217 
H    -3.8645262   -1.5493072   -0.4706481 
H     5.4338477   -0.7427749    2.2064552 
H     6.2326750   -2.3592308   -1.7289625 
H     3.2884990    0.9959749   -5.4223493 
H    -0.9744196    1.2468758   -4.7173752 
H     7.0153640   -1.7985336    0.5788655 
H     0.9887252    1.5404997   -6.2469214 
H    -2.4604787    1.5884893    1.7266038 
C    -5.1797965    1.2295193    1.9049150 
C    -4.0695580    0.1654291    1.8102777 
C    -2.8288172    0.7532854    1.0996999 
C    -3.1761319    1.3492514   -0.2867873 
C    -4.3356745    2.3584351   -0.1978283 
C    -5.5597193    1.7599884    0.5131500 
H    -4.8250568    2.0683208    2.5357055 
H    -6.0619472    0.7974265    2.4103441 
H    -4.4577388   -0.7092256    1.2615901 
H    -3.8030712   -0.1888719    2.8209083 
H    -2.2762902    1.8327535   -0.7157567 
H    -3.4663046    0.5388582   -0.9825220 
H    -3.9944661    3.2458051    0.3635897 
H    -4.6025837    2.7021750   -1.2135689 
H    -5.9747074    0.9304231   -0.0937663 
H    -6.3579584    2.5190919    0.5955438 
H    -2.0838333   -1.9163631    2.6439301 
C    -0.9967091   -1.0440127    5.0920698 
C    -1.1116206   -0.3064504    3.7468049 
C    -1.1704194   -1.2944217    2.5587336 
C     0.0756444   -2.2118042    2.5846363 
C     0.2003618   -2.9467545    3.9316515 
C     0.2281657   -1.9712079    5.1180225 
H    -1.9162843   -1.6383946    5.2588150 
H    -0.9451925   -0.3061551    5.9132813 
H    -0.2221970    0.3381797    3.6061847 
H    -1.9872753    0.3642356    3.7565473 
H     0.0435730   -2.9433574    1.7639355 
H     0.9754683   -1.5860066    2.4152833 
H    -0.6578027   -3.6383151    4.0445132 
H     1.1097253   -3.5741907    3.9219660 
H     1.1495219   -1.3571801    5.0637911 
H     0.2730404   -2.5246489    6.0728251 
