112
Energy =
C     1.3327596    0.5708720   -2.9380700 
C     0.9708432    1.9272950   -2.6900678 
C     1.5755108    2.6636251   -1.6448773 
H     0.1316025    2.3693492   -3.2408528 
Pd    0.4709774    0.8387187   -0.8410384 
P    -0.4508180    1.9405478    0.9893588 
P     0.2102095   -1.3449427    0.0589612 
H     2.3579050    0.2801182   -2.6684689 
H     2.5210153    2.2652214   -1.2444626 
C    -0.4851826   -1.8759001   -5.9861271 
C    -1.2032884   -0.8056357   -5.4266740 
C    -0.6209151   -0.0050140   -4.4396772 
C     0.6979193   -0.2487923   -3.9887288 
C     1.4144376   -1.3152453   -4.5782197 
C     0.8284580   -2.1234318   -5.5605063 
H    -0.9452393   -2.5071750   -6.7531128 
H    -2.2278560   -0.6025563   -5.7554498 
H    -1.2099389    0.8023615   -3.9902322 
H     2.4470337   -1.5073993   -4.2673146 
H     1.4032399   -2.9443982   -6.0017197 
C     0.9700216    6.7972316   -0.6408251 
C     1.9090473    6.0200007    0.0533634 
C     2.0850866    4.6729969   -0.2807553 
C     1.3225339    4.0722494   -1.3099080 
C     0.3722335    4.8667360   -1.9927142 
C     0.2034324    6.2143218   -1.6634267 
H     0.8356340    7.8541604   -0.3887745 
H     2.5127136    6.4659034    0.8504864 
H     2.8269821    4.0741340    0.2573658 
H    -0.2325967    4.4351058   -2.7952806 
H    -0.5321620    6.8151145   -2.2070908 
Fe   -1.4537548   -2.0724862    3.2408665 
C    -0.1411602   -1.2830451    1.8578443 
C    -0.9160502   -0.2461253    2.5265257 
C    -0.6486910   -0.3415365    3.9374151 
C     0.2458855   -1.4356418    4.1613445 
C     0.5453036   -2.0292512    2.8931328 
C    -1.9917944   -3.6594204    4.4054576 
C    -2.8190906   -2.5207645    4.6876787 
C    -3.4918710   -2.1492317    3.4769620 
C    -3.0773549   -3.0549193    2.4450271 
C    -2.1493469   -3.9897110    3.0192923 
C    -1.7183916    0.8467107    1.8707536 
H    -1.0871567    0.2983117    4.7055172 
H     0.6003426   -1.7875160    5.1317978 
H     1.1926997   -2.8934885    2.7375353 
H    -1.3395026   -4.1696415    5.1166599 
H    -2.9031193   -2.0119484    5.6497026 
H    -4.1941635   -1.3207632    3.3681742 
H    -3.4230192   -3.0470613    1.4104347 
H    -1.6619619   -4.8168457    2.5018940 
H     1.7563144   -3.1201123    0.6340830 
C     4.3230378   -2.0181068    0.6895851 
C     2.9588123   -1.3072220    0.6612455 
C     1.8749263   -2.2053468    0.0219001 
C     2.3066622   -2.6182572   -1.3983790 
C     3.6683474   -3.3356242   -1.3759856 
C     4.7516966   -2.4668070   -0.7169164 
H     4.2552978   -2.9012210    1.3551058 
H     5.0823636   -1.3483271    1.1322683 
H     3.0384317   -0.3810467    0.0542146 
H     2.6623138   -0.9955455    1.6777738 
H     1.5481487   -3.2572557   -1.8800907 
H     2.3827979   -1.7080142   -2.0151407 
H     3.5683446   -4.2881431   -0.8194627 
H     3.9608636   -3.6032436   -2.4074514 
H     4.9294214   -1.5704925   -1.3446797 
H     5.7098829   -3.0142132   -0.6715457 
H    -1.9607766   -2.2411148   -0.0433502 
C    -1.9187354   -4.9091813   -0.8130730 
C    -0.7688442   -4.0089283   -0.3217267 
C    -1.0682685   -2.5281410   -0.6311106 
C    -1.3719446   -2.2893663   -2.1191168 
C    -2.5098495   -3.2062426   -2.5992315 
C    -2.2018198   -4.6847007   -2.3084236 
H    -2.8343653   -4.6895834   -0.2300701 
H    -1.6690998   -5.9677723   -0.6182799 
H     0.1609771   -4.3183406   -0.8323289 
H    -0.6028940   -4.1343122    0.7620701 
H    -1.6350503   -1.2284737   -2.2765206 
H    -0.4686829   -2.4746908   -2.7286497 
H    -3.4489915   -2.9207705   -2.0839430 
H    -2.6768997   -3.0483556   -3.6795666 
H    -1.3156831   -4.9940664   -2.8974669 
H    -3.0397407   -5.3240941   -2.6385610 
H    -2.1701489    1.4676273    2.6639394 
C    -2.8206710    0.3858657    0.9036146 
H    -3.4208679   -0.3995460    1.3876361 
H    -3.4850071    1.2216616    0.6316426 
H    -2.3980442   -0.0325284   -0.0270022 
C     2.5042971    2.9482084    4.4282151 
C     1.1394743    3.2357661    4.5895961 
C     0.2344382    2.9608946    3.5562064 
C     0.6918809    2.4047309    2.3417501 
C     2.0605891    2.1083006    2.1942909 
C     2.9635792    2.3795969    3.2315091 
H     3.2077158    3.1616164    5.2396904 
H     0.7776313    3.6716146    5.5266426 
H    -0.8296635    3.1752982    3.7032147 
H     2.4109904    1.6499182    1.2636926 
H     4.0251105    2.1422490    3.1060001 
C    -2.9936199    5.5897273   -0.3720528 
C    -3.0444645    4.3668584   -1.0585945 
C    -2.2424204    3.2973271   -0.6425035 
C    -1.3973203    3.4298822    0.4835221 
C    -1.3258570    4.6708444    1.1447172 
C    -2.1232369    5.7417917    0.7163818 
H    -3.6178143    6.4282993   -0.6974260 
H    -3.7026811    4.2483590   -1.9256456 
H    -2.2614130    2.3527433   -1.1991018 
H    -0.6343355    4.8150950    1.9790998 
H    -2.0545381    6.7037140    1.2346125 
