203
Energy =
C     3.4142602    1.3531942   -0.9403674 
C     3.8467929    0.2664947   -0.1448142 
C     3.5853750   -1.0774420   -0.5582372 
H     4.2394261    0.4561855    0.8620163 
Pd    1.6680111    0.0240282   -0.3172861 
P     0.1045763   -1.6911407   -0.4786310 
P     0.0826944    1.6676711    0.1254397 
H     3.1974763    1.1291561   -1.9968926 
H     3.5529838   -1.2684680   -1.6400353 
C     3.8072252    5.5697465   -0.2196643 
C     3.2117132    5.0919434   -1.3961279 
C     3.0891652    3.7155203   -1.6061239 
C     3.5579275    2.7859012   -0.6485353 
C     4.1434984    3.2838884    0.5378401 
C     4.2648492    4.6606535    0.7478880 
H     3.9163768    6.6466631   -0.0568564 
H     2.8452008    5.7925052   -2.1536547 
H     2.6222689    3.3478844   -2.5234781 
H     4.5133127    2.5923261    1.3001691 
H     4.7188465    5.0289812    1.6730205 
C     4.4602748   -4.5724891    1.8022753 
C     4.4045382   -4.6465324    0.4030531 
C     4.1121612   -3.5046585   -0.3512153 
C     3.8720148   -2.2615321    0.2741186 
C     3.9174506   -2.2042370    1.6871219 
C     4.2143729   -3.3446902    2.4398933 
H     4.6901686   -5.4639598    2.3949668 
H     4.5906303   -5.5967267   -0.1083936 
H     4.0665004   -3.5726235   -1.4418420 
H     3.7048216   -1.2606015    2.2019668 
H     4.2500725   -3.2791242    3.5320105 
C     1.6839437    2.6106657   -5.0979930 
C     0.1436227    2.4498922   -5.1411723 
C    -0.4021982    3.3216451   -6.2911473 
C    -0.2033167    0.9682025   -5.4360627 
C    -0.4645488    2.8379820   -3.7771763 
C    -0.0096758    2.2052741   -2.6033264 
C    -1.4884904    3.7916139   -3.6399978 
C    -2.0920427    4.1046616   -2.4001995 
C    -3.2006106    5.1727466   -2.3336380 
C    -3.8450046    5.2431301   -0.9327173 
C    -4.3100758    4.8508158   -3.3661084 
C    -2.5737511    6.5525721   -2.6641160 
C    -1.6294938    3.4369268   -1.2568125 
C    -0.5713622    2.5123742   -1.3554989 
C     0.8208644    2.9026240    1.2621935 
C     1.5988790    2.3822664    2.3169412 
C     2.1009825    3.2239585    3.3217778 
C     2.9446232    2.6940127    4.4982287 
C     4.2439823    3.5269910    4.6368897 
C     3.3455932    1.2161966    4.3028826 
C     2.1081881    2.8158102    5.7983515 
C     1.7910780    4.5971248    3.2341562 
C     1.0522783    5.1525271    2.1724090 
C     0.5762636    4.2792316    1.1745375 
C     0.7062568    6.6547167    2.1547782 
C     0.2827546    7.1256835    0.7450093 
C    -0.4763320    6.8769596    3.1350361 
C     1.9129853    7.5098732    2.6115254 
C    -1.4068771    1.1030376    1.0585819 
C    -1.6248903    1.5200656    2.3877517 
C    -2.7451139    1.0618591    3.0892786 
C    -3.6544655    0.1835779    2.4909024 
C    -2.3187393    0.2236382    0.4313948 
C    -3.4461684   -0.2305363    1.1655992 
C    -2.2459928   -0.1963499   -1.0018829 
C    -3.2727394    0.2980813   -1.8493671 
O    -4.0914980    1.2356793   -1.2872230 
C    -5.4452188    1.3785210   -1.7478873 
C    -6.3385895    0.2274168   -1.2811919 
C    -6.4208528    0.0777103    0.2598849 
C    -5.6734061   -1.1362908    0.8152550 
O    -4.2686408   -1.1025473    0.5077265 
C    -3.3956313   -0.1543224   -3.1728787 
C    -2.4960308   -1.1097969   -3.6565018 
C    -1.4613408   -1.5940523   -2.8489223 
C    -1.3228123   -1.1362159   -1.5224028 
C     0.7934494   -3.1486613   -1.3533464 
C     1.4879408   -2.9184218   -2.5608171 
C     2.0451003   -3.9820667   -3.2829535 
C     2.7864925   -3.7711520   -4.6177336 
C     4.2339427   -4.3130122   -4.4976276 
C     2.8573241   -2.2799062   -5.0113886 
C     2.0351974   -4.5386645   -5.7359656 
C     1.9112727   -5.2842352   -2.7444221 
C     1.2479297   -5.5422979   -1.5337025 
C     0.6865440   -4.4466326   -0.8432845 
C     1.0557120   -6.9645218   -0.9713917 
C    -0.4191982   -7.3784464   -1.2219473 
C     1.3366057   -6.9899835    0.5525013 
C     1.9877001   -7.9870721   -1.6551549 
C    -0.6389220   -2.3276277    1.0606614 
C    -1.7558901   -3.1838072    0.9801655 
C    -2.2902408   -3.7566669    2.1412450 
C    -3.4686058   -4.7475676    2.1010756 
C    -4.5936345   -4.2595273    3.0476709 
C    -2.9622250   -6.1371353    2.5683283 
C    -4.0511883   -4.8871483    0.6787738 
C    -1.6922593   -3.4203127    3.3777166 
C    -0.5974573   -2.5471033    3.4904096 
C    -0.0675520   -2.0080025    2.2986372 
C     0.0214197   -2.1600107    4.8484748 
C    -0.6073976   -2.9375144    6.0231974 
C    -0.2069223   -0.6453567    5.0839911 
C     1.5407137   -2.4583206    4.8244216 
H     2.1215204    2.3522588   -6.0783776 
H     2.1439313    1.9435289   -4.3476897 
H     1.9686154    3.6500877   -4.8587125 
H     0.0664209    3.0171460   -7.2427998 
H    -0.1783728    4.3915839   -6.1337811 
H    -1.4941770    3.2076002   -6.4082297 
H     0.1718651    0.2981223   -4.6431516 
H     0.2450624    0.6525635   -6.3954283 
H    -1.2955977    0.8288005   -5.4972750 
H     0.7767627    1.4434332   -2.6498421 
H    -1.8477965    4.3097902   -4.5322230 
H    -4.6615526    5.9855092   -0.9345816 
H    -3.1181570    5.5541807   -0.1615011 
H    -4.2671706    4.2676159   -0.6337539 
H    -5.1149095    5.6046353   -3.3065780 
H    -3.9263109    4.8566585   -4.4005145 
H    -4.7498149    3.8581032   -3.1716664 
H    -1.7792064    6.8049049   -1.9401020 
H    -2.1283672    6.5609487   -3.6741848 
H    -3.3434263    7.3441558   -2.6244269 
H    -2.0906675    3.6113509   -0.2822606 
H     1.7970689    1.3051886    2.3389407 
H     4.0348760    4.5940276    4.8218525 
H     4.8453193    3.1534833    5.4843220 
H     4.8595123    3.4531781    3.7230858 
H     3.9729555    0.8840360    5.1476172 
H     2.4685073    0.5497462    4.2630224 
H     3.9315208    1.0764245    3.3764586 
H     1.8302282    3.8650383    5.9988616 
H     1.1783726    2.2256966    5.7207778 
H     2.6845028    2.4441687    6.6646266 
H     2.1524968    5.2632965    4.0229995 
H     0.0038753    4.6669180    0.3301824 
H    -0.6569841    6.6494946    0.4152778 
H     0.1108399    8.2156735    0.7524667 
H     1.0621090    6.9033234   -0.0044864 
H    -1.3565281    6.2852632    2.8265889 
H    -0.7646392    7.9434371    3.1571584 
H    -0.2034517    6.5719869    4.1605812 
H     2.7925592    7.3282938    1.9711848 
H     1.6572312    8.5821139    2.5525802 
H     2.2004353    7.3006952    3.6558923 
H    -0.9287833    2.2091194    2.8711294 
H    -2.9126133    1.3941187    4.1189231 
H    -4.5192564   -0.1753207    3.0545103 
H    -5.4791885    1.4915018   -2.8473036 
H    -5.7766687    2.3329369   -1.3075586 
H    -5.9802796   -0.7131403   -1.7402229 
H    -7.3449929    0.4122126   -1.6988105 
H    -6.0379974    0.9894337    0.7559566 
H    -7.4752788   -0.0262858    0.5742724 
H    -5.8380266   -1.2370806    1.9037183 
H    -6.0276482   -2.0662978    0.3415344 
H    -4.1889715    0.2269833   -3.8205857 
H    -2.5994207   -1.4796472   -4.6817623 
H    -0.7759812   -2.3452571   -3.2475071 
H     1.5838727   -1.8915313   -2.9257195 
H     4.7955503   -3.7702128   -3.7165143 
H     4.7704161   -4.1850497   -5.4544886 
H     4.2499891   -5.3868786   -4.2446584 
H     1.8530128   -1.8402313   -5.1459551 
H     3.3999456   -1.6829519   -4.2556529 
H     3.3982787   -2.1732556   -5.9672280 
H     2.5476220   -4.4028020   -6.7050394 
H     0.9995397   -4.1686011   -5.8365578 
H     1.9906458   -5.6211501   -5.5262334 
H     2.3484753   -6.1200298   -3.2965035 
H     0.1638949   -4.6101479    0.1018013 
H    -1.1159458   -6.6802814   -0.7248004 
H    -0.6501423   -7.3792676   -2.3015196 
H    -0.6077198   -8.3923404   -0.8252529 
H     1.2295912   -8.0203145    0.9346761 
H     0.6311933   -6.3553418    1.1160538 
H     2.3579620   -6.6389310    0.7754749 
H     3.0493543   -7.7030937   -1.5419527 
H     1.7692438   -8.0918428   -2.7321601 
H     1.8514957   -8.9809993   -1.1955058 
H    -2.1946095   -3.3887680    0.0010787 
H    -4.9438430   -3.2569259    2.7491637 
H    -4.2551931   -4.2031873    4.0963641 
H    -5.4521585   -4.9533899    3.0109079 
H    -2.1562854   -6.5017701    1.9068299 
H    -2.5658146   -6.0987152    3.5978466 
H    -3.7857452   -6.8732544    2.5478919 
H    -3.3127760   -5.3099743   -0.0252008 
H    -4.3838965   -3.9120824    0.2832935 
H    -4.9192568   -5.5684785    0.6963315 
H    -2.1071236   -3.8621662    4.2867674 
H     0.7917702   -1.3286453    2.3227978 
H    -0.1234803   -2.6354924    6.9681019 
H    -0.4714139   -4.0275216    5.9099013 
H    -1.6871768   -2.7289037    6.1228517 
H     0.2004652   -0.0385498    4.2573637 
H     0.2805812   -0.3237330    6.0218351 
H    -1.2845640   -0.4220107    5.1555284 
H     1.9996679   -2.1850955    5.7913797 
H     1.7282854   -3.5299410    4.6388227 
H     2.0547172   -1.8871756    4.0346478 
