203
Energy =
C     2.3432093    1.2800790    2.6400459 
C     1.1740571    1.9928324    3.0553548 
C     0.0453298    1.2859257    3.5296468 
H     1.0968910    3.0694038    2.8586359 
Pd    0.6045838    0.6502489    1.4114700 
P    -1.5380028    0.4643314    0.4906684 
P     1.6325545   -0.6486936   -0.2206233 
H     2.5626501    0.3392537    3.1632408 
H     0.2243329    0.2552508    3.8742191 
C     5.7919598    3.1145690    0.8248285 
C     5.9134988    1.9233621    1.5546657 
C     4.7835780    1.3326470    2.1316966 
C     3.5071316    1.9216404    1.9988140 
C     3.3973687    3.1171517    1.2503546 
C     4.5271012    3.7081354    0.6759821 
H     6.6748785    3.5798225    0.3743391 
H     6.8924900    1.4512564    1.6823609 
H     4.8871649    0.4016828    2.6959632 
H     2.4154930    3.5809467    1.1056018 
H     4.4222196    4.6358247    0.1043564 
C    -3.7417217    2.8175187    4.8468859 
C    -3.4697441    1.4416249    4.8874108 
C    -2.2330513    0.9621391    4.4459496 
C    -1.2438105    1.8457966    3.9531053 
C    -1.5418856    3.2264145    3.9003132 
C    -2.7781163    3.7051695    4.3420132 
H    -4.6998306    3.1999282    5.2126406 
H    -4.2201405    0.7417625    5.2693840 
H    -2.0237941   -0.1121088    4.4784116 
H    -0.7990604    3.9333160    3.5205644 
H    -2.9910968    4.7776892    4.2964364 
C    -1.7798546    6.7176461    1.8283808 
C    -1.4750993    5.7933719    0.6222625 
C    -1.8959442    6.5017569   -0.6917332 
C     0.0472961    5.5449506    0.5839184 
C    -2.2733142    4.4806511    0.7493849 
C    -1.6702888    3.2180334    0.6615656 
C    -3.6729166    4.5261885    0.9389792 
C    -4.4643856    3.3731204    1.0683544 
C    -6.0008045    3.4281203    1.1867191 
C    -6.5974327    2.8642084   -0.1309286 
C    -6.5210545    4.8668721    1.3858436 
C    -6.4848186    2.5675454    2.3790092 
C    -3.8174853    2.1196217    1.0054633 
C    -2.4390842    2.0386888    0.7788745 
C    -2.4961915   -0.9402453    1.1640299 
C    -3.7946459   -1.2553266    0.7368088 
C    -4.5136144   -2.3028675    1.3514656 
C    -5.9705998   -2.5786386    0.9275138 
C    -6.6279017   -3.6871654    1.7760113 
C    -5.9947277   -3.0185848   -0.5568763 
C    -6.8017935   -1.2813775    1.0975064 
C    -3.8598958   -3.0520349    2.3455464 
C    -2.5280900   -2.8028906    2.7464302 
C    -1.8647221   -1.7238271    2.1497766 
C    -1.8617295   -3.6849650    3.8188676 
C    -2.6037521   -3.4873858    5.1656741 
C    -1.9453021   -5.1724277    3.3915875 
C    -0.3736178   -3.3227618    4.0129907 
C    -1.6048168    0.2780704   -1.3430580 
C    -2.1219224    1.3078887   -2.1547823 
C    -2.1366583    1.1576775   -3.5460631 
C    -1.6350615   -0.0019848   -4.1470636 
C    -1.0963119   -0.9036504   -1.9297304 
C    -1.1205090   -1.0317355   -3.3425078 
C    -0.6274139   -2.0931623   -1.1538795 
C    -1.4541972   -3.2463416   -1.2202954 
O    -2.6388362   -3.0817474   -1.8800866 
C    -3.2346799   -4.1974131   -2.5647829 
C    -2.4850028   -4.5496903   -3.8503355 
C    -2.4573480   -3.3992174   -4.8894144 
C    -1.0864725   -2.7457429   -5.0668634 
O    -0.5841620   -2.1873674   -3.8396938 
C    -1.0637987   -4.4498110   -0.6113641 
C     0.1650834   -4.5146267    0.0534869 
C     0.9962983   -3.3921894    0.1330610 
C     0.6050116   -2.1735022   -0.4595951 
C     1.8555164    0.0902468   -1.8744757 
C     2.2180793   -0.7236437   -2.9676722 
C     2.4679947   -0.1488175   -4.2211446 
C     2.9082014   -0.9803196   -5.4409096 
C     2.9646136   -2.4874728   -5.1157260 
C     4.3188514   -0.5157456   -5.8871643 
C     1.9044731   -0.7607687   -6.6008715 
C     2.3156097    1.2510333   -4.3479993 
C     1.9318530    2.0828763   -3.2837143 
C     1.7110138    1.4752964   -2.0294978 
C     1.7409259    3.6042501   -3.4442420 
C     2.1270474    4.0990778   -4.8533569 
C     2.6238273    4.3428101   -2.4086957 
C     0.2511343    3.9494155   -3.1948705 
C     3.2833878   -1.2633769    0.3015431 
C     4.4049207   -1.1987191   -0.5395708 
C     5.6525432   -1.6901532   -0.1098866 
C     6.8977624   -1.6672055   -1.0192847 
C     7.9782142   -0.7522860   -0.3892379 
C     6.5702661   -1.1369799   -2.4314509 
C     7.4526857   -3.1084081   -1.1585336 
C     5.7355834   -2.2281029    1.1878817 
C     4.6327616   -2.2944421    2.0649188 
C     3.4043749   -1.7953012    1.6014767 
C     4.8011624   -2.9047102    3.4705895 
C     5.2082131   -4.3937607    3.3234585 
C     3.4970513   -2.8343278    4.2922790 
C     5.9060988   -2.1385571    4.2419091 
H    -1.2200255    7.6645195    1.7315596 
H    -1.4806405    6.2403344    2.7778677 
H    -2.8515413    6.9696168    1.8961526 
H    -1.3377732    7.4471021   -0.8154785 
H    -2.9734537    6.7408031   -0.6917597 
H    -1.6891773    5.8591276   -1.5648608 
H     0.3958190    5.0358849    1.5005171 
H     0.5824432    6.5073526    0.5144019 
H     0.3466645    4.9379360   -0.2862802 
H    -0.5907721    3.1229990    0.5018188 
H    -4.1565316    5.5046226    0.9865523 
H    -7.7013215    2.8878577   -0.0940238 
H    -6.2843942    1.8189165   -0.2987654 
H    -6.2657093    3.4612230   -0.9984247 
H    -7.6193132    4.8522586    1.4933756 
H    -6.0993298    5.3276076    2.2967656 
H    -6.2831893    5.5153298    0.5244647 
H    -6.1458546    1.5212724    2.3020643 
H    -6.1096093    2.9747127    3.3316545 
H    -7.5884956    2.5607999    2.4150423 
H    -4.4006376    1.2026295    1.1175647 
H    -4.2447867   -0.6868523   -0.0831215 
H    -6.6509274   -3.4219119    2.8477134 
H    -7.6702817   -3.8369027    1.4458061 
H    -6.1035982   -4.6529330    1.6671573 
H    -7.0358160   -3.1595885   -0.8982604 
H    -5.5144527   -2.2715417   -1.2116843 
H    -5.4587472   -3.9746932   -0.6800773 
H    -6.7778406   -0.9346399    2.1453550 
H    -6.4234392   -0.4652309    0.4586974 
H    -7.8548560   -1.4616784    0.8176912 
H    -4.3988816   -3.8721160    2.8260891 
H    -0.8337243   -1.4772716    2.4192270 
H    -3.6691725   -3.7640432    5.0844983 
H    -2.1483779   -4.1154772    5.9520303 
H    -2.5505546   -2.4336769    5.4930998 
H    -2.9903165   -5.5117327    3.2893224 
H    -1.4583108   -5.8143306    4.1470930 
H    -1.4390202   -5.3259758    2.4232808 
H    -0.2445622   -2.2896017    4.3833944 
H     0.0816649   -3.9965495    4.7589188 
H     0.1908436   -3.4253153    3.0694020 
H    -2.5199968    2.2190102   -1.7018256 
H    -2.5455042    1.9564825   -4.1733896 
H    -1.6434887   -0.1003445   -5.2355326 
H    -4.2558746   -3.8558009   -2.7945222 
H    -3.3205316   -5.0726291   -1.8944784 
H    -2.9818330   -5.4382024   -4.2804206 
H    -1.4558596   -4.8627397   -3.5925327 
H    -2.7627706   -3.7756934   -5.8826214 
H    -3.1905872   -2.6173579   -4.6155153 
H    -1.1140784   -1.9838194   -5.8671064 
H    -0.3273431   -3.4929743   -5.3500114 
H    -1.7088564   -5.3306486   -0.6566150 
H     0.4823399   -5.4560827    0.5139723 
H     1.9603628   -3.4742350    0.6396056 
H     2.2930188   -1.8034967   -2.8210568 
H     3.7130549   -2.7067081   -4.3336353 
H     3.2513026   -3.0542597   -6.0183168 
H     1.9857615   -2.8613536   -4.7697974 
H     4.3237315    0.5500136   -6.1742093 
H     5.0524213   -0.6522876   -5.0741788 
H     4.6558620   -1.1024580   -6.7605050 
H     2.1912789   -1.3695413   -7.4767258 
H     1.8732137    0.2945334   -6.9217932 
H     0.8868186   -1.0519765   -6.2925512 
H     2.5041008    1.7018139   -5.3252475 
H     1.4172442    2.0740905   -1.1600391 
H     3.1853620    3.8853502   -5.0847441 
H     1.4985752    3.6396127   -5.6364622 
H     1.9848778    5.1920474   -4.9134985 
H     2.4949799    5.4357732   -2.5052514 
H     3.6907320    4.1023588   -2.5572762 
H     2.3588306    4.0615713   -1.3770392 
H    -0.0875800    3.6043238   -2.2032333 
H    -0.3917344    3.4658953   -3.9492537 
H     0.0967128    5.0419038   -3.2519505 
H     4.3008542   -0.7618042   -1.5335312 
H     8.2518944   -1.0859509    0.6269074 
H     7.6148827    0.2873115   -0.3236892 
H     8.8938916   -0.7608475   -1.0070275 
H     5.8137371   -1.7652783   -2.9339203 
H     6.1965027   -0.0983049   -2.4059715 
H     7.4818648   -1.1484590   -3.0532884 
H     6.6914701   -3.7820284   -1.5899348 
H     7.7647144   -3.5253817   -0.1855824 
H     8.3353895   -3.1127864   -1.8224090 
H     6.7010442   -2.6119376    1.5339030 
H     2.5219555   -1.8152884    2.2478992 
H     5.3351208   -4.8567068    4.3183511 
H     6.1599132   -4.5022919    2.7755688 
H     4.4339125   -4.9584332    2.7746056 
H     3.1594805   -1.7917825    4.4369807 
H     3.6630667   -3.2695659    5.2925829 
H     2.6789483   -3.4004012    3.8144740 
H     6.0481826   -2.5810033    5.2437587 
H     6.8758699   -2.1780363    3.7172643 
H     5.6329258   -1.0765983    4.3740301 
