104
Energy =
C    -2.3697368    2.8240483   -0.6230523 
C    -1.1603204    3.4828498   -1.0174058 
C    -0.4445152    3.0381335   -2.1518668 
H    -0.6984095    4.2185119   -0.3473869 
Pd   -0.7030809    1.3684403   -0.6159415 
P     1.4326416    0.4368825   -0.5627899 
P    -1.7660197   -0.5048884    0.2845700 
H    -3.0043270    2.4132046   -1.4201370 
H    -1.0013710    2.4199993   -2.8743649 
C    -4.3873057    3.3818129    3.1411691 
C    -5.0534653    2.8094311    2.0478802 
C    -4.3942165    2.6524501    0.8228165 
C    -3.0498605    3.0586750    0.6652589 
C    -2.3912285    3.6384193    1.7770375 
C    -3.0534451    3.8003905    2.9975703 
H    -4.9023889    3.5047158    4.0993469 
H    -6.0935574    2.4817880    2.1470206 
H    -4.9210133    2.2022168   -0.0251891 
H    -1.3439418    3.9499305    1.6924757 
H    -2.5266757    4.2512692    3.8453793 
C     3.2728216    4.4843763   -3.7422481 
C     2.7278973    5.0925521   -2.5996461 
C     1.5235602    4.6326420   -2.0595402 
C     0.8324501    3.5548415   -2.6590349 
C     1.3941850    2.9522427   -3.8099163 
C     2.6028219    3.4086906   -4.3445999 
H     4.2157534    4.8501110   -4.1615007 
H     3.2469422    5.9315712   -2.1259107 
H     1.1128592    5.1250774   -1.1733363 
H     0.8721456    2.1150449   -4.2856563 
H     3.0198280    2.9289739   -5.2359508 
C    -1.9175628   -2.0602295    2.6360715 
C    -1.8318720   -2.2474955    4.0208092 
C    -1.4929376   -1.1724218    4.8580726 
C    -1.2391556    0.0948485    4.3115196 
C    -1.3200021    0.2893432    2.9264596 
C    -1.6593821   -0.7876754    2.0860316 
C    -3.5581777   -0.5126741   -0.1244587 
C    -4.5496597   -0.7570557    0.8442084 
C    -5.9070189   -0.6876478    0.4938573 
C    -6.2860185   -0.3769675   -0.8193259 
C    -5.3015974   -0.1263454   -1.7903412 
C    -3.9465604   -0.1834678   -1.4426669 
C    -1.0658717   -2.0259979   -0.4970199 
C    -1.7762874   -2.7111059   -1.5032815 
C    -1.2115189   -3.8249354   -2.1380069 
C     0.0578599   -4.2813300   -1.7689829 
C     0.2261179   -2.4702417   -0.1157453 
C     0.7602531   -3.6190090   -0.7501829 
C     1.0388355   -1.8777406    0.9920044 
C     1.2421067   -2.6906482    2.1337598 
O     0.5980554   -3.8999837    2.1296386 
C     1.3323897   -5.0757592    2.5226427 
C     2.5313572   -5.3541159    1.6091788 
C     2.2047292   -5.3701557    0.1119135 
O     2.0077218   -4.0175869   -0.3582453 
C     2.0205356   -2.2466425    3.2132750 
C     2.6339956   -0.9915943    3.1461146 
C     2.4784846   -0.1832075    2.0130800 
C     1.6822994   -0.6171743    0.9344120 
C     1.9451516   -0.6353592   -1.9527396 
C     3.1063305   -1.4306377   -1.8679951 
C     3.4401808   -2.2895854   -2.9223677 
C     2.6180670   -2.3655683   -4.0573307 
C     1.4563956   -1.5822476   -4.1408143 
C     1.1193802   -0.7189695   -3.0908393 
C     2.6734983    1.7773369   -0.3872234 
C     3.8454140    1.8539031   -1.1608044 
C     4.7621222    2.8924497   -0.9396110 
C     4.5234240    3.8514219    0.0546177 
C     3.3431683    3.7949945    0.8122527 
C     2.4137744    2.7738902    0.5813100 
H    -2.1512827   -2.9055090    1.9809641 
H    -2.0191077   -3.2389234    4.4457061 
H    -1.4236632   -1.3241727    5.9404677 
H    -0.9744090    0.9333834    4.9636985 
H    -1.1215693    1.2741261    2.4907337 
H    -4.2661777   -0.9868751    1.8753410 
H    -6.6703605   -0.8729964    1.2566106 
H    -7.3461111   -0.3231450   -1.0874990 
H    -5.5910488    0.1222501   -2.8166220 
H    -3.1809423    0.0338348   -2.1978351 
H    -2.7817980   -2.3881267   -1.7837427 
H    -1.7704184   -4.3419774   -2.9247534 
H     0.5129830   -5.1438254   -2.2650014 
H     0.5875736   -5.8852410    2.4524813 
H     1.6558496   -5.0058696    3.5789982 
H     2.9552475   -6.3352017    1.8952065 
H     3.3225267   -4.6014161    1.7792939 
H     3.0531028   -5.7868884   -0.4576447 
H     1.3071066   -5.9806348   -0.0999794 
H     2.1419544   -2.8784437    4.0975350 
H     3.2481852   -0.6409005    3.9818319 
H     2.9937453    0.7788833    1.9660694 
H     3.7269671   -1.4012222   -0.9664490 
H     4.3365038   -2.9138618   -2.8498592 
H     2.8778926   -3.0455932   -4.8754402 
H     0.8059442   -1.6542704   -5.0185483 
H     0.1977967   -0.1272886   -3.1313061 
H     4.0424926    1.1088570   -1.9373498 
H     5.6690783    2.9489522   -1.5501729 
H     5.2490235    4.6525702    0.2291535 
H     3.1422694    4.5524416    1.5771542 
H     1.4835929    2.7360682    1.1626607 
