203
Energy =
C     2.3849236    1.5294522    2.4539539 
C     1.1748631    2.0005586    3.0621014 
C     0.2466815    1.0756291    3.5921009 
H     0.8857417    3.0538809    2.9600784 
Pd    0.6450799    0.6868740    1.3832419 
P    -1.5133243    0.3284359    0.5919406 
P     1.6919803   -0.4417189   -0.3677502 
H     2.8406421    0.6221590    2.8719891 
H     0.6358055    0.0702428    3.8201938 
C     5.0566660    3.9371720    0.0819950 
C     5.4789644    2.7123877    0.6190563 
C     4.6095335    1.9436104    1.4025131 
C     3.2912364    2.3826143    1.6624999 
C     2.8773183    3.6195528    1.1114689 
C     3.7508949    4.3888985    0.3375724 
H     5.7383959    4.5379710   -0.5287019 
H     6.4952547    2.3528970    0.4297944 
H     4.9478486    0.9861571    1.8135543 
H     1.8559796    3.9775395    1.2766661 
H     3.4112507    5.3451385   -0.0741786 
C    -3.6447865    1.7396381    5.2797442 
C    -3.1143596    0.4449488    5.1773205 
C    -1.8423725    0.2555534    4.6301786 
C    -1.0753140    1.3511642    4.1678962 
C    -1.6275449    2.6484918    4.2713125 
C    -2.8986038    2.8378006    4.8215682 
H    -4.6356491    1.8933580    5.7187827 
H    -3.6905605   -0.4180061    5.5270540 
H    -1.4322627   -0.7558305    4.5499527 
H    -1.0595291    3.5166646    3.9261215 
H    -3.3121821    3.8486064    4.8919127 
C    -0.7101147    5.5769039    1.2797614 
C    -2.2540326    5.5671636    1.2667372 
C    -2.7436901    6.4249290    2.4595221 
C    -2.7472028    6.1947848   -0.0632727 
C    -2.8191321    4.1357949    1.3595935 
C    -2.0403403    3.0043130    1.0631675 
C    -4.1665361    3.9226972    1.7135336 
C    -4.7378450    2.6409909    1.8290314 
C    -6.2279482    2.4799063    2.1895321 
C    -6.5618730    1.0296677    2.6037471 
C    -7.0623381    2.8475181    0.9337677 
C    -6.6197490    3.4216717    3.3544732 
C    -3.9239782    1.5297473    1.5387945 
C    -2.5954856    1.7098364    1.1268239 
C    -2.2799971   -1.2492704    1.0910191 
C    -1.5654534   -2.0552516    1.9929033 
C    -2.0989685   -3.2704349    2.4487866 
C    -1.3443854   -4.1736176    3.4430663 
C     0.1036594   -3.6867327    3.6699453 
C    -1.2838249   -5.6217466    2.8953642 
C    -2.0976932   -4.1610819    4.7980733 
C    -3.3770044   -3.6326155    1.9783599 
C    -4.1074508   -2.8603757    1.0515657 
C    -3.5297264   -1.6619456    0.5968303 
C    -5.5042687   -3.3242896    0.5944497 
C    -5.4348948   -4.7829311    0.0770979 
C    -6.4671304   -3.2531026    1.8085136 
C    -6.0630601   -2.4335065   -0.5354938 
C    -1.6051478    0.3815447   -1.2499202 
C    -2.1631455    1.4900602   -1.9183043 
C    -2.1596075    1.5351662   -3.3170913 
C    -1.6126635    0.4876078   -4.0667031 
C    -1.0422199   -0.6848760   -1.9891518 
C    -1.0663448   -0.6250171   -3.4060598 
C    -0.4888917   -1.9305689   -1.3733639 
C    -1.2423595   -3.1191153   -1.5529992 
O    -2.4540747   -2.9587564   -2.1640129 
C    -2.9925247   -4.0195441   -2.9723326 
C    -2.2696865   -4.1343067   -4.3154133 
C    -2.3462456   -2.8505551   -5.1818283 
C    -1.0148259   -2.1109833   -5.3245871 
O    -0.4930709   -1.6846552   -4.0530066 
C    -0.7617124   -4.3527907   -1.0845977 
C     0.4845246   -4.4084078   -0.4511044 
C     1.2465584   -3.2495584   -0.2635579 
C     0.7635076   -2.0048613   -0.7164574 
C     1.8689897    0.4038481   -1.9720914 
C     1.5710418    1.7736748   -2.0522406 
C     1.7109425    2.4585021   -3.2722573 
C     1.3934661    3.9589492   -3.4169071 
C     0.4988897    4.1975048   -4.6586112 
C     2.7297090    4.7289955   -3.5796288 
C     0.6503015    4.5015518   -2.1784036 
C     2.1883840    1.7280118   -4.3775937 
C     2.4922425    0.3522129   -4.3267776 
C     2.3079083   -0.3103153   -3.1023280 
C     3.0222277   -0.3654282   -5.5831086 
C     2.0463535   -0.1394695   -6.7649651 
C     3.1704351   -1.8843341   -5.3539992 
C     4.4106468    0.2228137   -5.9450207 
C     3.3685127   -0.9828053    0.1453760 
C     4.5113066   -0.7702120   -0.6450885 
C     5.7803046   -1.1655513   -0.1852466 
C     7.0456123   -0.9989209   -1.0500269 
C     7.4788777   -2.4047590   -1.5438555 
C     8.1935950   -0.3731382   -0.2193896 
C     6.7868754   -0.0989995   -2.2777816 
C     5.8680734   -1.7662461    1.0891309 
C     4.7453039   -1.9760439    1.9122265 
C     3.4927855   -1.5684218    1.4172408 
C     4.8320234   -2.6443959    3.2985113 
C     4.0941365   -1.7733938    4.3475382 
C     6.2910537   -2.8321778    3.7637827 
C     4.1518779   -4.0357874    3.2128058 
H    -0.3413982    6.6163511    1.2489937 
H    -0.2846133    5.0521142    0.4096806 
H    -0.3141516    5.1079443    2.1985665 
H    -2.2984402    7.4336902    2.4062240 
H    -2.4476681    5.9696478    3.4214643 
H    -3.8393570    6.5502993    2.4630844 
H    -2.3870479    5.6090211   -0.9276213 
H    -2.3740419    7.2297626   -0.1662794 
H    -3.8500867    6.2205213   -0.1035548 
H    -0.9899235    3.1115572    0.7710899 
H    -4.7952017    4.7932980    1.9196776 
H    -7.6190948    0.9641409    2.9130811 
H    -5.9339420    0.6960369    3.4485762 
H    -6.4209133    0.3208308    1.7693790 
H    -8.1421921    2.7457319    1.1446145 
H    -6.8701200    3.8884146    0.6194984 
H    -6.8094023    2.1840986    0.0878126 
H    -6.0112123    3.2165693    4.2510592 
H    -6.4928522    4.4853671    3.0908263 
H    -7.6820024    3.2740216    3.6163788 
H    -4.3223715    0.5181131    1.6273797 
H    -0.5750865   -1.7187797    2.3111693 
H     0.1368378   -2.6872196    4.1399334 
H     0.6328439   -4.3817610    4.3440579 
H     0.6623368   -3.6407543    2.7186832 
H    -0.7289290   -6.2710518    3.5955300 
H    -2.2901960   -6.0551568    2.7665905 
H    -0.7732364   -5.6455419    1.9175904 
H    -2.1481680   -3.1376967    5.2106840 
H    -3.1312679   -4.5322067    4.6859579 
H    -1.5820063   -4.8045241    5.5332610 
H    -3.8207656   -4.5652727    2.3419484 
H    -4.0340647   -1.0483421   -0.1527071 
H    -5.1026332   -5.4843518    0.8613039 
H    -6.4318088   -5.1135905   -0.2639717 
H    -4.7343793   -4.8641877   -0.7709583 
H    -6.1272134   -3.9065513    2.6308970 
H    -7.4818057   -3.5761771    1.5143054 
H    -6.5306069   -2.2220002    2.1979218 
H    -5.3871785   -2.4184265   -1.4083822 
H    -7.0426497   -2.8200198   -0.8652879 
H    -6.2152375   -1.3922459   -0.2003972 
H    -2.6106646    2.3086931   -1.3490912 
H    -2.5959411    2.3971273   -3.8323449 
H    -1.6091739    0.5401806   -5.1582845 
H    -4.0485640   -3.7383168   -3.1155719 
H    -2.9763340   -4.9809716   -2.4272502 
H    -2.7205252   -4.9867943   -4.8551823 
H    -1.2148944   -4.4086974   -4.1264358 
H    -2.6871777   -3.1001031   -6.2030338 
H    -3.0953362   -2.1503188   -4.7668002 
H    -1.1112820   -1.2571381   -6.0196173 
H    -0.2334422   -2.7770409   -5.7254320 
H    -1.3520551   -5.2635920   -1.2114189 
H     0.8706518   -5.3714774   -0.1013159 
H     2.2250999   -3.3204918    0.2172548 
H     1.2204095    2.2853526   -1.1518912 
H     1.0006827    3.9000300   -5.5950755 
H     0.2483985    5.2696878   -4.7441795 
H    -0.4412866    3.6252971   -4.5773423 
H     3.3831541    4.5623108   -2.7057103 
H     3.2747479    4.3960165   -4.4801969 
H     2.5415212    5.8137200   -3.6757681 
H     0.3979245    5.5660129   -2.3259606 
H     1.2728789    4.4306445   -1.2712623 
H    -0.2891211    3.9485220   -2.0001428 
H     2.3261056    2.2547942   -5.3273547 
H     2.4921045   -1.3833469   -3.0128995 
H     1.0422284   -0.5221904   -6.5188257 
H     1.9498407    0.9294491   -7.0208578 
H     2.4085775   -0.6667158   -7.6653269 
H     3.5157429   -2.3705076   -6.2827223 
H     2.2093106   -2.3422662   -5.0618840 
H     3.9127781   -2.1082789   -4.5672641 
H     5.1271793    0.0745542   -5.1185848 
H     4.3498468    1.3057024   -6.1505351 
H     4.8141602   -0.2724025   -6.8463204 
H     4.4033121   -0.2830011   -1.6151510 
H     6.6796586   -2.8709655   -2.1467251 
H     7.7017514   -3.0760390   -0.6960729 
H     8.3866347   -2.3297435   -2.1691851 
H     7.9045781    0.6158419    0.1761687 
H     8.4842123   -1.0087321    0.6341761 
H     9.0885614   -0.2415341   -0.8523841 
H     6.4284911    0.9023346   -1.9800587 
H     6.0413181   -0.5420278   -2.9607394 
H     7.7222424    0.0285626   -2.8492251 
H     6.8510786   -2.0771082    1.4496639 
H     2.5937639   -1.7018618    2.0307963 
H     4.1745142   -2.2329096    5.3482620 
H     3.0180963   -1.6739844    4.1185188 
H     4.5316373   -0.7605701    4.3983483 
H     6.8525196   -3.5050791    3.0925173 
H     6.3047607   -3.2845752    4.7702200 
H     6.8269158   -1.8681522    3.8189428 
H     4.1831642   -4.5416396    4.1945168 
H     3.0942998   -3.9475229    2.9094411 
H     4.6661378   -4.6773223    2.4761107 
