104
Energy =
C     0.6398564    0.5631401    3.7522202 
C     0.8856085   -0.8159054    3.5662374 
C     2.0773437   -1.2816825    2.9293050 
H     0.0839221   -1.5336286    3.7833036 
Pd    0.9441598    0.0457848    1.5456250 
P     1.6793157   -0.6602114   -0.5477793 
P    -0.7905485    1.3438438    0.6115472 
H     1.5138442    1.2335020    3.7484159 
H     2.9938132   -0.6903075    3.0712034 
C    -2.8485257    2.3206571    5.5482598 
C    -2.9346578    1.0377341    4.9821412 
C    -1.8123693    0.4521069    4.3897010 
C    -0.5775345    1.1402563    4.3448015 
C    -0.5103480    2.4354852    4.9059001 
C    -1.6317922    3.0168457    5.5077197 
H    -3.7282966    2.7757517    6.0148154 
H    -3.8828926    0.4906782    5.0025857 
H    -1.9034320   -0.5444516    3.9492570 
H     0.4353107    2.9865648    4.8715831 
H    -1.5564651    4.0194837    5.9400715 
C     2.6913791   -5.4034823    1.8367398 
C     3.7794602   -4.5872493    2.1758584 
C     3.5714164   -3.2515388    2.5410082 
C     2.2723189   -2.7010482    2.5708112 
C     1.1836641   -3.5379082    2.2280402 
C     1.3905194   -4.8733789    1.8690736 
H     2.8537062   -6.4468905    1.5479425 
H     4.7969492   -4.9901092    2.1515307 
H     4.4266733   -2.6215429    2.8061263 
H     0.1669428   -3.1295481    2.2125645 
H     0.5346755   -5.5033440    1.6036269 
C     2.5032260    0.3079471   -3.0611100 
C     3.0361235    1.2674840   -3.9283639 
C     3.3734376    2.5434936   -3.4476341 
C     3.1738275    2.8618130   -2.0966976 
C     2.6339212    1.9057795   -1.2246458 
C     2.2923399    0.6296298   -1.7050752 
C     3.0524614   -1.8743074   -0.7024001 
C     4.2420449   -1.5246817   -0.0300721 
C     5.4027816   -2.2877243   -0.1984999 
C     5.3824999   -3.4216789   -1.0244587 
C     4.2026971   -3.7755413   -1.6940557 
C     3.0426033   -3.0004666   -1.5475271 
C     0.1542689   -1.3863805   -1.2669605 
C    -0.1367720   -2.7439074   -1.0055494 
C    -1.3342354   -3.3078726   -1.4580000 
C    -2.2591301   -2.5338367   -2.1692174 
C    -0.7975844   -0.5703955   -1.9263025 
C    -1.9925191   -1.1759253   -2.3968203 
C    -0.6548885    0.8974019   -2.1750680 
C    -0.5953679    1.3229516   -3.5224566 
O    -0.5224088    0.3417453   -4.4719168 
C    -1.4895667    0.3161055   -5.5453835 
C    -2.4134020   -0.8955764   -5.3786892 
C    -3.4621539   -0.7497469   -4.2709743 
O    -2.8831471   -0.3412038   -3.0169754 
C    -0.5425080    2.6861007   -3.8531254 
C    -0.5701399    3.6428165   -2.8336231 
C    -0.6408051    3.2477292   -1.4912410 
C    -0.6828547    1.8811104   -1.1538474 
C    -2.3435965    0.3603395    0.6099900 
C    -3.4889305    0.8300878   -0.0658943 
C    -4.6484013    0.0454203   -0.1044515 
C    -4.6703734   -1.2132169    0.5160778 
C    -3.5262944   -1.6939071    1.1709487 
C    -2.3666051   -0.9106093    1.2157845 
C    -1.1022876    2.8990586    1.5324780 
C    -2.3752073    3.2948157    1.9805943 
C    -2.5329855    4.5226177    2.6403659 
C    -1.4307977    5.3628083    2.8508112 
C    -0.1542264    4.9620458    2.4256560 
C     0.0121747    3.7296458    1.7821613 
H     2.2308615   -0.6822120   -3.4412757 
H     3.1859613    1.0198276   -4.9841822 
H     3.7930416    3.2909813   -4.1289857 
H     3.4342893    3.8567032   -1.7210935 
H     2.4659580    2.1487562   -0.1687130 
H     4.2572284   -0.6416472    0.6203247 
H     6.3217705   -2.0026228    0.3240466 
H     6.2869076   -4.0258690   -1.1500344 
H     4.1843160   -4.6537215   -2.3478795 
H     2.1416542   -3.2695644   -2.1060324 
H     0.5723145   -3.3568314   -0.4430052 
H    -1.5504078   -4.3613523   -1.2522870 
H    -3.1978968   -2.9718057   -2.5192992 
H    -0.9203141    0.2334611   -6.4869807 
H    -2.0627362    1.2618978   -5.5643516 
H    -1.7830096   -1.7838145   -5.1908665 
H    -2.9469689   -1.0759190   -6.3309200 
H    -4.1746867    0.0576915   -4.5063865 
H    -4.0399342   -1.6867867   -4.1550429 
H    -0.4646084    2.9846910   -4.9028970 
H    -0.5297349    4.7078330   -3.0838935 
H    -0.6726989    4.0086686   -0.7075398 
H    -3.4624158    1.7923460   -0.5877000 
H    -5.5325862    0.4121590   -0.6356112 
H    -5.5767003   -1.8266502    0.4769954 
H    -3.5321613   -2.6858739    1.6344214 
H    -1.4551731   -1.2929847    1.6894551 
H    -3.2408574    2.6438322    1.8297906 
H    -3.5252871    4.8190736    2.9951967 
H    -1.5623508    6.3231257    3.3599835 
H     0.7133721    5.6062375    2.6024911 
H     1.0116180    3.4087943    1.4642042 
