203
Energy =
C     3.4410693    1.2013833   -0.9129190 
C     3.8267976    0.2197602    0.0282875 
C     3.5529994   -1.1640346   -0.2286043 
H     4.1690228    0.5337167    1.0219724 
Pd    1.6571217   -0.0250642   -0.2092810 
P     0.0907721   -1.7369085   -0.4419265 
P     0.0782055    1.6448209    0.1593259 
H     3.2548289    0.8481079   -1.9399929 
H     3.5911957   -1.5013385   -1.2731433 
C     3.6846793    5.4812730   -0.6761115 
C     3.1402351    4.8513251   -1.8051923 
C     3.0789788    3.4562725   -1.8617300 
C     3.5521292    2.6602983   -0.7917519 
C     4.0915865    3.3108705    0.3415529 
C     4.1559162    4.7062279    0.3961898 
H     3.7451562    6.5733852   -0.6330518 
H     2.7660361    5.4470975   -2.6442901 
H     2.6523260    2.9680797   -2.7433510 
H     4.4693992    2.7246842    1.1837966 
H     4.5742706    5.1937348    1.2822220 
C     3.8610866   -4.3304993    2.6770508 
C     3.8198562   -2.9924466    3.1041687 
C     3.7275140   -1.9564242    2.1702722 
C     3.6876781   -2.2304555    0.7817360 
C     3.7372044   -3.5806680    0.3663051 
C     3.8198927   -4.6165791    1.3046984 
H     3.9276700   -5.1413805    3.4096649 
H     3.8547575   -2.7569922    4.1731068 
H     3.6703238   -0.9226146    2.5254070 
H     3.7012605   -3.8157676   -0.7029084 
H     3.8554609   -5.6547970    0.9600720 
C    -1.1357904    1.9702525   -6.1116048 
C     0.0210114    2.3120393   -5.1389081 
C     0.9616821    1.0900308   -5.0658420 
C     0.8158233    3.5272200   -5.6826245 
C    -0.5499954    2.6750681   -3.7549333 
C    -0.0817162    2.0800086   -2.5729125 
C    -1.5597262    3.6503056   -3.6333410 
C    -2.1412961    4.0126038   -2.4011655 
C    -3.2358633    5.0966847   -2.3557863 
C    -4.3650322    4.7535075   -3.3595012 
C    -2.5978090    6.4556528   -2.7459785 
C    -3.8577549    5.2248571   -0.9489364 
C    -1.6663820    3.3762607   -1.2409633 
C    -0.6202520    2.4405168   -1.3263641 
C     0.8135365    2.9406545    1.2314373 
C     1.6221069    2.4927454    2.2964541 
C     2.1537979    3.4017825    3.2270301 
C     3.0169899    2.9461936    4.4205867 
C     3.5743737    1.5213261    4.2154049 
C     2.1286605    2.9576243    5.6919374 
C     4.2200189    3.9016994    4.6173229 
C     1.8399454    4.7650132    3.0560900 
C     1.0721071    5.2482755    1.9796104 
C     0.5696094    4.3109173    1.0573481 
C     0.7399584    6.7496286    1.8707681 
C     0.1954887    7.1144619    0.4722557 
C    -0.3457056    7.0734261    2.9313033 
C     1.9944547    7.6147175    2.1461563 
C    -1.3701506    1.0386119    1.1287280 
C    -1.5349122    1.3859876    2.4847002 
C    -2.6116785    0.8657056    3.2117393 
C    -3.5357913    0.0059442    2.6074572 
C    -2.2890220    0.1650459    0.5012668 
C    -3.3828759   -0.3345527    1.2533077 
C    -2.2321733   -0.2086829   -0.9459479 
C    -3.2402467    0.3318877   -1.7850641 
O    -4.0784747    1.2316008   -1.1895143 
C    -5.4390058    1.3488908   -1.6400171 
C    -6.2960027    0.1724541   -1.1701621 
C    -6.3609487    0.0214575    0.3718101 
C    -5.6236761   -1.2047364    0.9126513 
O    -4.2224365   -1.1826855    0.5855520 
C    -3.3134676   -0.0242708   -3.1416780 
C    -2.3902382   -0.9368388   -3.6637767 
C    -1.3885959   -1.4859688   -2.8549525 
C    -1.3002979   -1.1226085   -1.4957930 
C     0.8258627   -3.1415818   -1.3672048 
C     0.7069921   -4.4718099   -0.9380113 
C     1.3428613   -5.5124291   -1.6450348 
C     1.1812637   -6.9893072   -1.2331710 
C     2.5501506   -7.7136835   -1.2468414 
C     0.2321126   -7.6694693   -2.2550125 
C     0.5739847   -7.1261413    0.1800354 
C     2.1079538   -5.1680203   -2.7742671 
C     2.2678370   -3.8375584   -3.2189136 
C     1.6093196   -2.8297643   -2.4977205 
C     3.1795851   -3.5310014   -4.4224929 
C     2.6969996   -4.3295389   -5.6596161 
C     4.6289656   -3.9489389   -4.0611156 
C     3.1782267   -2.0304972   -4.7823817 
C    -0.6845721   -2.4311576    1.0542926 
C    -0.1626299   -2.0859143    2.3113299 
C    -0.7294559   -2.6171616    3.4833932 
C    -0.1999384   -2.2680254    4.8872771 
C    -1.3752714   -1.8892570    5.8222959 
C     0.7802301   -1.0773258    4.8417329 
C     0.5397454   -3.5076704    5.4539958 
C    -1.7993595   -3.5209698    3.3374078 
C    -2.3462509   -3.8820423    2.0891940 
C    -1.7805651   -3.3065125    0.9398537 
C    -3.5118773   -4.8876187    2.0222608 
C    -4.6711809   -4.4053447    2.9297537 
C    -3.0104500   -6.2671356    2.5223160 
C    -4.0484740   -5.0451047    0.5840139 
H    -0.7316629    1.6908583   -7.1007447 
H    -1.8154278    2.8264871   -6.2605332 
H    -1.7303556    1.1245570   -5.7256883 
H     1.3153288    0.8284832   -6.0778763 
H     0.4429754    0.2106994   -4.6453264 
H     1.8566813    1.2898162   -4.4497113 
H     0.1708016    4.4177782   -5.7798223 
H     1.2365710    3.3001121   -6.6785631 
H     1.6502450    3.7853440   -5.0063623 
H     0.6934795    1.3093187   -2.5976975 
H    -1.9186542    4.1436293   -4.5425328 
H    -5.1566191    5.5224163   -3.3185174 
H    -4.8184547    3.7770036   -3.1206081 
H    -3.9960522    4.7122524   -4.3984908 
H    -3.3565763    7.2582735   -2.7202620 
H    -1.7864089    6.7229581   -2.0468938 
H    -2.1718358    6.4225701   -3.7639369 
H    -4.2876629    4.2661619   -0.6095735 
H    -3.1154216    5.5529125   -0.2000655 
H    -4.6647868    5.9773616   -0.9647546 
H    -2.1113220    3.5882472   -0.2663352 
H     1.8227805    1.4196287    2.3884103 
H     4.1922566    1.4606164    3.3012893 
H     4.2136890    1.2417602    5.0700164 
H     2.7729883    0.7687364    4.1453165 
H     2.7137681    2.6494165    6.5771242 
H     1.7221200    3.9662541    5.8819598 
H     1.2783479    2.2618707    5.5790111 
H     4.8410048    3.9483163    3.7048325 
H     3.9030674    4.9277988    4.8680306 
H     4.8549644    3.5426197    5.4459102 
H     2.2209137    5.4831926    3.7875745 
H    -0.0186562    4.6434041    0.2009766 
H    -0.7695173    6.6200685    0.2656735 
H     0.0252309    8.2029893    0.4102673 
H     0.9051537    6.8305073   -0.3245729 
H    -1.2570503    6.4756339    2.7531740 
H    -0.6179264    8.1435034    2.8903172 
H     0.0145714    6.8494005    3.9507143 
H     2.8027735    7.3778702    1.4342454 
H     1.7438109    8.6847144    2.0408224 
H     2.3849901    7.4690902    3.1676181 
H    -0.8329068    2.0705939    2.9673907 
H    -2.7372607    1.1394067    4.2644175 
H    -4.3671820   -0.3990199    3.1898079 
H    -5.4851560    1.4636305   -2.7384165 
H    -5.7891919    2.2936680   -1.1933958 
H    -5.9075915   -0.7546698   -1.6320381 
H    -7.3102112    0.3235629   -1.5822770 
H    -5.9522313    0.9237192    0.8643742 
H    -7.4121319   -0.0633042    0.7023093 
H    -5.9947938   -2.1290337    0.4407527 
H    -5.7747108   -1.3053798    2.0028668 
H    -4.0818416    0.4063345   -3.7885057 
H    -2.4548910   -1.2275661   -4.7174857 
H    -0.6888627   -2.2106693   -3.2783684 
H     0.1271010   -4.6916705   -0.0405975 
H     3.0046801   -7.7274587   -2.2518922 
H     2.4240855   -8.7634039   -0.9289109 
H     3.2631261   -7.2296613   -0.5572443 
H    -0.7563873   -7.1771325   -2.2586283 
H     0.6431158   -7.6155100   -3.2783552 
H     0.0887384   -8.7343707   -1.9978920 
H     0.5158212   -8.1923720    0.4585355 
H    -0.4501585   -6.7173818    0.2278086 
H     1.1870800   -6.6068915    0.9379196 
H     2.6123752   -5.9658537   -3.3281204 
H     1.7111806   -1.7814343   -2.7952859 
H     2.7205708   -5.4179823   -5.4801311 
H     1.6626664   -4.0505266   -5.9271666 
H     3.3478686   -4.1192589   -6.5267536 
H     5.3111525   -3.7389749   -4.9041133 
H     4.6960151   -5.0261911   -3.8310984 
H     4.9889881   -3.3904993   -3.1782859 
H     3.5551662   -1.4062175   -3.9516862 
H     2.1682634   -1.6760899   -5.0510663 
H     3.8373051   -1.8551666   -5.6497786 
H     0.6804080   -1.3910708    2.3542739 
H    -2.0802817   -2.7261475    5.9629480 
H    -1.9382294   -1.0325137    5.4136980 
H    -0.9908490   -1.6104262    6.8194027 
H     1.6806961   -1.3188968    4.2535111 
H     0.3053971   -0.1833597    4.3997463 
H     1.1094933   -0.8202629    5.8635272 
H     1.3768953   -3.7956963    4.7946110 
H    -0.1402088   -4.3734293    5.5384078 
H     0.9433041   -3.2908292    6.4596771 
H    -2.2327103   -3.9621564    4.2407204 
H    -2.1870793   -3.5204896   -0.0512664 
H    -5.5200130   -5.1095731    2.8713976 
H    -5.0238683   -3.4096358    2.6144493 
H    -4.3658810   -4.3386734    3.9879460 
H    -2.1834227   -6.6365467    1.8915467 
H    -3.8289826   -7.0083208    2.4888443 
H    -2.6446309   -6.2113753    3.5623101 
H    -4.9055739   -5.7404139    0.5787546 
H    -4.3862246   -4.0776879    0.1732558 
H    -3.2818956   -5.4591537   -0.0949609 
