203
Energy =
C     3.4644486    1.2206891   -0.8949385 
C     3.8440123    0.2037842    0.0108094 
C     3.5560667   -1.1683673   -0.2808724 
H     4.1974632    0.4845234    1.0105122 
Pd    1.6673051   -0.0135360   -0.2248156 
P     0.0982803   -1.7284401   -0.4360200 
P     0.0967763    1.6501894    0.1594451 
H     3.2649681    0.9060008   -1.9318755 
H     3.5729907   -1.4768151   -1.3346220 
C     3.8659074    5.4821280   -0.5325014 
C     3.2667102    4.9071341   -1.6630577 
C     3.1466748    3.5180430   -1.7572751 
C     3.6191188    2.6717432   -0.7269231 
C     4.2125172    3.2672779    0.4093965 
C     4.3322407    4.6571169    0.5034143 
H     3.9719323    6.5691445   -0.4590113 
H     2.8948718    5.5418244   -2.4741738 
H     2.6763817    3.0741302   -2.6383473 
H     4.5924818    2.6425185    1.2224659 
H     4.7928814    5.1016716    1.3910152 
C     3.9123104   -4.4135981    2.5297882 
C     3.8856197   -3.0878146    2.9944739 
C     3.7748614   -2.0263100    2.0918934 
C     3.7029488   -2.2622026    0.6977025 
C     3.7384450   -3.6003647    0.2438541 
C     3.8384840   -4.6619348    1.1515413 
H     3.9931068   -5.2445466    3.2380647 
H     3.9466925   -2.8820039    4.0683201 
H     3.7297413   -1.0021062    2.4766756 
H     3.6791741   -3.8045420   -0.8308725 
H     3.8629392   -5.6907302    0.7787560 
C    -0.4937735    0.9019711   -5.4342901 
C    -0.0696092    2.3590791   -5.1211196 
C     1.4767819    2.4455680   -5.1174862 
C    -0.6006914    3.2803565   -6.2395241 
C    -0.6313098    2.7420773   -3.7357676 
C    -0.1209498    2.1295683   -2.5733955 
C    -1.6779429    3.6662063   -3.5710689 
C    -2.2487001    3.9738343   -2.3148040 
C    -3.3917319    5.0031443   -2.2247460 
C    -3.9500406    5.1152940   -0.7902760 
C    -4.5466647    4.5851220   -3.1695163 
C    -2.8493006    6.3901782   -2.6571427 
C    -1.7274631    3.3317999   -1.1821347 
C    -0.6501463    2.4330784   -1.3102687 
C     0.8520425    2.9591311    1.1994864 
C     0.6106582    4.3266947    1.0100503 
C     1.1194864    5.2736243    1.9197147 
C     0.7824454    6.7718370    1.7846289 
C    -0.4080982    7.0744181    2.7332316 
C     0.3745852    7.1344506    0.3384124 
C     1.9892378    7.6544016    2.1850607 
C     1.8825814    4.8005899    3.0041928 
C     2.1893945    3.4373673    3.1924730 
C     1.6619531    2.5212823    2.2676938 
C     3.0308809    2.9826615    4.4021251 
C     4.2137137    3.9515400    4.6454243 
C     2.1071656    2.9670822    5.6484180 
C     3.6137117    1.5670563    4.1974290 
C    -1.3089794    1.0439343    1.1938252 
C    -1.4158648    1.4079398    2.5522123 
C    -2.4434913    0.8781955    3.3401415 
C    -3.3759692   -0.0127863    2.7976765 
C    -2.2438670    0.1477741    0.6258068 
C    -3.2833916   -0.3693927    1.4427566 
C    -2.2734594   -0.2442869   -0.8165685 
C    -3.3620315    0.2419772   -1.5851717 
O    -4.1689117    1.1451511   -0.9521008 
C    -5.5604064    1.2328988   -1.3041598 
C    -6.3641726    0.0426399   -0.7773870 
C    -6.3218159   -0.1157982    0.7645473 
C    -5.5089465   -1.3185173    1.2473814 
O    -4.1344702   -1.2462882    0.8302343 
C    -3.5511720   -0.1813491   -2.9109386 
C    -2.6583517   -1.1001954   -3.4723473 
C    -1.5690745   -1.5834509   -2.7384188 
C    -1.3682399   -1.1564495   -1.4102628 
C     0.8170125   -3.0846243   -1.4408353 
C     0.7427121   -4.4394527   -1.0740115 
C     1.3425032   -5.4274901   -1.8756396 
C     1.2389797   -6.9274356   -1.5352756 
C     0.6461064   -7.1580133   -0.1287243 
C     2.6378498   -7.5910424   -1.5915706 
C     0.3109989   -7.5984074   -2.5823609 
C     2.0255812   -5.0153409   -3.0407398 
C     2.1316867   -3.6654734   -3.4253341 
C     1.5145996   -2.7069857   -2.6008083 
C     2.8752572   -3.2037899   -4.6940699 
C     3.5891254   -4.3702444   -5.4078244 
C     3.9373689   -2.1409339   -4.3104525 
C     1.8475107   -2.5753198   -5.6706314 
C    -0.5961916   -2.4708925    1.0776816 
C    -1.6658434   -3.3805310    0.9842488 
C    -2.1820653   -3.9847205    2.1423384 
C    -3.3055172   -5.0382402    2.0939315 
C    -2.7227548   -6.4031321    2.5442858 
C    -3.8861336   -5.1897607    0.6721156 
C    -4.4530925   -4.6314094    3.0517974 
C    -1.6181706   -3.6120212    3.3791231 
C    -0.5767909   -2.6722774    3.5056548 
C    -0.0552429   -2.1158590    2.3242795 
C    -0.0339982   -2.3107890    4.9013705 
C    -1.2044112   -1.9390369    5.8458089 
C     0.9326259   -1.1103277    4.8390893 
C     0.7238378   -3.5389339    5.4687364 
H    -0.0797876    0.5792756   -6.4065994 
H    -1.5926605    0.8165475   -5.4754607 
H    -0.1373336    0.2050181   -4.6566446 
H     1.8730169    2.1930952   -6.1166858 
H     1.9268270    1.7368855   -4.3998756 
H     1.8177030    3.4638324   -4.8611215 
H    -1.6965360    3.2036964   -6.3489969 
H    -0.1526099    2.9885352   -7.2049440 
H    -0.3424218    4.3377453   -6.0527169 
H     0.6855228    1.3905140   -2.6387158 
H    -2.0818597    4.1656885   -4.4549510 
H    -4.7879484    5.8332869   -0.7711021 
H    -3.1858393    5.4793448   -0.0805387 
H    -4.3229243    4.1422775   -0.4254701 
H    -5.3782533    5.3084447   -3.0985973 
H    -4.2239821    4.5506958   -4.2241165 
H    -4.9304408    3.5873531   -2.8984275 
H    -2.0227813    6.7104524   -1.9989456 
H    -2.4702980    6.3715822   -3.6936685 
H    -3.6499304    7.1493357   -2.6018923 
H    -2.1540011    3.5083299   -0.1922391 
H     0.0156918    4.6500605    0.1542570 
H    -0.1474831    6.8442987    3.7812449 
H    -0.6887474    8.1415281    2.6732073 
H    -1.2895673    6.4672985    2.4602442 
H     0.2094255    8.2227104    0.2594182 
H     1.1591061    6.8493699   -0.3838741 
H    -0.5648898    6.6392710    0.0374454 
H     2.2605843    7.5329908    3.2475246 
H     2.8764068    7.4140078    1.5748950 
H     1.7423812    8.7193901    2.0323175 
H     2.2644474    5.5251800    3.7279351 
H     1.8612537    1.4488803    2.3703612 
H     3.8757269    4.9703775    4.8984121 
H     4.8278446    3.5912668    5.4890024 
H     4.8614926    4.0164982    3.7532664 
H     1.6822101    3.9682484    5.8376627 
H     2.6710955    2.6558799    6.5462916 
H     1.2696270    2.2617034    5.5036958 
H     4.2538528    1.5223675    3.2980491 
H     4.2356623    1.2890705    5.0652800 
H     2.8256467    0.8033181    4.1018558 
H    -0.7070139    2.1135302    2.9917367 
H    -2.5219160    1.1680394    4.3930938 
H    -4.1665468   -0.4276636    3.4278558 
H    -5.6858457    1.3457250   -2.3967890 
H    -5.8955789    2.1720243   -0.8346525 
H    -5.9983909   -0.8786145   -1.2685919 
H    -7.4064756    0.1821009   -1.1172580 
H    -5.9143898    0.7988952    1.2348007 
H    -7.3456431   -0.2391388    1.1620009 
H    -5.8783031   -2.2515277    0.7915782 
H    -5.5849286   -1.4324229    2.3442144 
H    -4.3895581    0.1967355   -3.5013252 
H    -2.8114294   -1.4427303   -4.5008358 
H    -0.8886524   -2.3059784   -3.1953788 
H     0.2252899   -4.7132272   -0.1533126 
H     1.2492199   -6.6650020    0.6541489 
H     0.6198061   -8.2390564    0.0912925 
H    -0.3888427   -6.7809271   -0.0545691 
H     3.0880704   -7.5264369   -2.5966271 
H     3.3318380   -7.1152324   -0.8774282 
H     2.5589378   -8.6614527   -1.3326026 
H     0.2123939   -8.6784613   -2.3719250 
H     0.7110623   -7.4851905   -3.6051384 
H    -0.6964000   -7.1467342   -2.5585414 
H     2.4923850   -5.7797483   -3.6659243 
H     1.5767045   -1.6425377   -2.8586352 
H     4.3338814   -4.8543252   -4.7516404 
H     2.8744639   -5.1387432   -5.7504708 
H     4.1208454   -3.9920333   -6.2978222 
H     4.4974114   -1.8189202   -5.2060621 
H     4.6592440   -2.5487166   -3.5810509 
H     3.4750860   -1.2393642   -3.8697391 
H     1.3348652   -1.7095302   -5.2167224 
H     1.0786585   -3.3135780   -5.9584055 
H     2.3527307   -2.2263617   -6.5890612 
H    -2.0914606   -3.5993129    0.0021983 
H    -2.3250744   -6.3519451    3.5728219 
H    -1.9004895   -6.7177556    1.8784750 
H    -3.5057934   -7.1821383    2.5201859 
H    -4.2799281   -4.2300215    0.2940339 
H    -3.1279736   -5.5564362   -0.0425193 
H    -4.7124185   -5.9213453    0.6818872 
H    -4.8663437   -3.6486011    2.7711805 
H    -4.1140039   -4.5712854    4.1000284 
H    -5.2676933   -5.3758778    3.0079360 
H    -2.0137282   -4.0732064    4.2898421 
H     0.7634669   -1.3918548    2.3517076 
H    -0.8140318   -1.6555401    6.8393500 
H    -1.9019591   -2.7811549    5.9926066 
H    -1.7768047   -1.0873626    5.4400172 
H     1.8267308   -1.3437003    4.2379880 
H     1.2738327   -0.8469554    5.8553122 
H     0.4415281   -0.2225597    4.4025293 
H     1.1392058   -3.3093613    6.4667036 
H     0.0532577   -4.4099974    5.5711549 
H     1.5539761   -3.8261677    4.8005335 
