104
Energy =
C    -0.3756706    3.3903232   -1.6964139 
C    -1.6314448    3.2284684   -1.0331415 
C    -1.7534482    3.4021474    0.3638986 
H    -2.4818774    2.8223001   -1.5960554 
Pd   -0.2225440    1.7864265   -0.1589227 
P    -0.8135777    0.1673298    1.4521184 
P     1.5511787    0.5008087   -0.9461239 
H     0.3249601    4.1310612   -1.2837793 
H    -0.9844552    4.0138692    0.8616999 
C     0.2419532    2.3806188   -5.8387347 
C     0.9883568    3.4027377   -5.2359077 
C     0.7736080    3.7332562   -3.8923108 
C    -0.1876034    3.0463479   -3.1202193 
C    -0.9345659    2.0180906   -3.7430730 
C    -0.7248841    1.6922365   -5.0865945 
H     0.4113178    2.1197658   -6.8883669 
H     1.7456731    3.9432921   -5.8124197 
H     1.3590805    4.5346511   -3.4301141 
H    -1.6663543    1.4472059   -3.1606912 
H    -1.3114297    0.8910574   -5.5490842 
C    -5.3287157    2.9303894    2.7044266 
C    -5.2176728    2.2664935    1.4712146 
C    -4.0612040    2.4040167    0.6983419 
C    -2.9851820    3.2057919    1.1451940 
C    -3.1062119    3.8560022    2.3940638 
C    -4.2683232    3.7256901    3.1623858 
H    -6.2369429    2.8233343    3.3064675 
H    -6.0378385    1.6373824    1.1101227 
H    -3.9929670    1.8727676   -0.2548844 
H    -2.2790739    4.4734706    2.7598327 
H    -4.3425288    4.2414658    4.1248669 
C     2.9109303    0.2616587   -3.4840065 
C     3.7980877    0.7577800   -4.4511059 
C     4.3527266    2.0382151   -4.3161288 
C     4.0151675    2.8317186   -3.2092737 
C     3.1124132    2.3513399   -2.2542897 
C     2.5525690    1.0628917   -2.3831924 
C     2.9106571    0.1305208    0.2342994 
C     3.0415670    0.8787623    1.4171632 
C     4.1252604    0.6482638    2.2764096 
C     5.0781812   -0.3286084    1.9543814 
C     4.9506631   -1.0746593    0.7710557 
C     3.8750444   -0.8439242   -0.0930667 
C     0.7196699   -1.0796052   -1.3711462 
C     0.1508479   -1.2197103   -2.6568612 
C    -0.5740454   -2.3701074   -2.9852625 
C    -0.7483171   -3.3920316   -2.0441467 
C     0.4974178   -2.0715075   -0.3845306 
C    -0.2191603   -3.2400544   -0.7542815 
C     0.9561205   -1.9960038    1.0368568 
C     1.8914255   -2.9652886    1.4677455 
O     2.4051987   -3.7904466    0.5061107 
C     2.3149854   -5.2229898    0.6744636 
C     1.3358654   -5.8027450   -0.3525520 
C    -0.1423250   -5.5494929   -0.0378225 
O    -0.4149570   -4.1624033    0.2385217 
C     2.3170412   -3.0215620    2.8041904 
C     1.7921903   -2.1162827    3.7318803 
C     0.8554958   -1.1536997    3.3328733 
C     0.4333777   -1.0863193    1.9911459 
C    -1.4135644    0.9033330    3.0212421 
C    -0.5919727    1.8809149    3.6241645 
C    -0.9515210    2.4471330    4.8531554 
C    -2.1490318    2.0628688    5.4769848 
C    -2.9866890    1.1223368    4.8616438 
C    -2.6230839    0.5385435    3.6390881 
C    -2.1478321   -0.9004403    0.7750692 
C    -2.7124769   -0.6039733   -0.4803001 
C    -3.6881979   -1.4429853   -1.0320767 
C    -4.1036944   -2.5868041   -0.3337288 
C    -3.5324481   -2.8969316    0.9100708 
C    -2.5524981   -2.0631753    1.4631441 
H     2.5171523   -0.7535340   -3.5857715 
H     4.0659830    0.1305753   -5.3077385 
H     5.0515182    2.4157306   -5.0697539 
H     4.4481154    3.8308623   -3.0945117 
H     2.8448741    2.9745201   -1.3922546 
H     2.2864267    1.6340756    1.6653836 
H     4.2222091    1.2292842    3.1993011 
H     5.9233867   -0.5099984    2.6265214 
H     5.6912129   -1.8414243    0.5215434 
H     3.7726891   -1.4340450   -1.0097241 
H     0.2696230   -0.4244234   -3.3974457 
H    -1.0105340   -2.4703616   -3.9844000 
H    -1.3192674   -4.2895332   -2.2973573 
H     2.0074832   -5.4662200    1.7086911 
H     3.3269818   -5.6291749    0.5061798 
H     1.4872626   -6.8967562   -0.4176224 
H     1.5908040   -5.3840224   -1.3431430 
H    -0.7854626   -5.9251443   -0.8567992 
H    -0.4422086   -6.0656081    0.8888512 
H     3.0654611   -3.7620178    3.1022033 
H     2.1194316   -2.1542265    4.7759384 
H     0.4473575   -0.4609845    4.0729395 
H     0.3353217    2.1927151    3.1284501 
H    -0.3014629    3.1943898    5.3200918 
H    -2.4355066    2.5088960    6.4349902 
H    -3.9347219    0.8411026    5.3313197 
H    -3.2886621   -0.1878396    3.1645305 
H    -2.3523491    0.2699230   -1.0351676 
H    -4.1135426   -1.2117978   -2.0141595 
H    -4.8643225   -3.2455701   -0.7658375 
H    -3.8390937   -3.8009390    1.4459975 
H    -2.0788607   -2.3317819    2.4130695 
