104
Energy =
C    -0.3891144    3.4084916   -1.7083745 
C    -1.6407638    3.2418838   -1.0385430 
C    -1.7527908    3.4023444    0.3610059 
H    -2.4953672    2.8418729   -1.5995644 
Pd   -0.2278480    1.7905258   -0.1863014 
P    -0.8103996    0.1581124    1.4134692 
P     1.5381684    0.5074233   -0.9951857 
H     0.3147798    4.1447015   -1.2931659 
H    -0.9795699    4.0087218    0.8588437 
C     0.2015118    2.4364013   -5.8635356 
C     0.9513863    3.4535251   -5.2565777 
C     0.7453963    3.7718855   -3.9086734 
C    -0.2102580    3.0774802   -3.1364187 
C    -0.9607387    2.0542945   -3.7634028 
C    -0.7598776    1.7406565   -5.1111596 
H     0.3638741    2.1851985   -6.9166236 
H     1.7045266    3.9996898   -5.8332885 
H     1.3334838    4.5694986   -3.4432147 
H    -1.6879358    1.4774500   -3.1811366 
H    -1.3489252    0.9431570   -5.5768044 
C    -5.3107868    2.9115951    2.7238553 
C    -5.2102315    2.2603768    1.4830113 
C    -4.0595682    2.4043279    0.7026613 
C    -2.9789665    3.1999225    1.1494865 
C    -3.0893933    3.8372730    2.4059575 
C    -4.2457087    3.7005909    3.1818646 
H    -6.2145690    2.7996885    3.3316785 
H    -6.0340054    1.6360523    1.1218352 
H    -3.9995426    1.8829692   -0.2565662 
H    -2.2584909    4.4496561    2.7717317 
H    -4.3117401    4.2064632    4.1501792 
C     2.8940870    0.2845537   -3.5358076 
C     3.7782376    0.7872030   -4.5022111 
C     4.3287924    2.0690162   -4.3631305 
C     3.9902168    2.8571635   -3.2528152 
C     3.0904839    2.3701315   -2.2982958 
C     2.5346370    1.0804820   -2.4314085 
C     2.9026491    0.1260424    0.1762598 
C     3.0440083    0.8715015    1.3597358 
C     4.1331509    0.6367226    2.2109365 
C     5.0814489   -0.3417221    1.8802213 
C     4.9435149   -1.0850978    0.6963088 
C     3.8622578   -0.8502124   -0.1597306 
C     0.7023799   -1.0675750   -1.4314187 
C     0.1324831   -1.1948802   -2.7179825 
C    -0.5935699   -2.3409670   -3.0594912 
C    -0.7693268   -3.3700354   -2.1265633 
C     0.4807507   -2.0693401   -0.4537467 
C    -0.2377851   -3.2326194   -0.8357889 
C     0.9469342   -2.0080130    0.9658235 
C     1.8803611   -2.9871815    1.3798954 
O     2.3585225   -3.8032748    0.3897511 
C     2.4637210   -5.2176539    0.6423844 
C     1.1046539   -5.8647688    0.9319410 
C     0.0110160   -5.5294461   -0.0877237 
O    -0.4482355   -4.1760557    0.1301029 
C     2.3149315   -3.0594508    2.7123325 
C     1.8063165   -2.1544427    3.6496831 
C     0.8728477   -1.1822049    3.2683520 
C     0.4378834   -1.1035228    1.9312064 
C    -1.3971813    0.8786934    2.9946244 
C    -0.5704236    1.8497769    3.6009171 
C    -0.9201322    2.4036537    4.8383646 
C    -2.1129948    2.0136555    5.4675134 
C    -2.9558430    1.0796453    4.8492921 
C    -2.6019800    0.5080230    3.6181678 
C    -2.1500329   -0.9021830    0.7357531 
C    -2.5492270   -2.0722944    1.4145282 
C    -3.5303897   -2.9024059    0.8583369 
C    -4.1089713   -2.5808144   -0.3790992 
C    -3.6995267   -1.4292106   -1.0680668 
C    -2.7220803   -0.5940952   -0.5133914 
H     2.5031443   -0.7314324   -3.6410195 
H     4.0469724    0.1641758   -5.3616270 
H     5.0252673    2.4517261   -5.1162830 
H     4.4198715    3.8573772   -3.1350058 
H     2.8221194    2.9890377   -1.4334639 
H     2.2929454    1.6287725    1.6143561 
H     4.2381790    1.2159289    3.1340881 
H     5.9312719   -0.5261850    2.5456731 
H     5.6811871   -1.8523224    0.4394842 
H     3.7521939   -1.4378648   -1.0771114 
H     0.2512639   -0.3915044   -3.4499397 
H    -1.0315738   -2.4291930   -4.0591057 
H    -1.3450220   -4.2659439   -2.3771588 
H     3.1770002   -5.4222668    1.4637278 
H     2.8994839   -5.6176632   -0.2876389 
H     0.7427494   -5.5622811    1.9313939 
H     1.2486569   -6.9612303    0.9608181 
H     0.3742682   -5.6429040   -1.1263072 
H    -0.8583259   -6.1948318    0.0535938 
H     3.0520112   -3.8105664    3.0097461 
H     2.1407063   -2.2056298    4.6909108 
H     0.4753556   -0.4937906    4.0180344 
H     0.3530852    2.1662571    3.1011485 
H    -0.2660048    3.1457049    5.3079138 
H    -2.3918647    2.4502416    6.4320933 
H    -3.9003499    0.7941022    5.3234561 
H    -3.2714123   -0.2134673    3.1415509 
H    -2.0698918   -2.3498083    2.3590113 
H    -3.8316209   -3.8128768    1.3862269 
H    -4.8699960   -3.2371414   -0.8141472 
H    -4.1306884   -1.1890062   -2.0454329 
H    -2.3661031    0.2855593   -1.0617895 
