104
Energy =
C     0.0910681    3.6660754   -0.4351840 
C    -1.2992303    3.5260269   -0.7182987 
C    -2.2158406    3.0983472    0.2684766 
H    -1.6419984    3.5907482   -1.7590187 
Pd   -0.5467096    1.5624419   -0.0187073 
P    -1.6199645   -0.5038005    0.2257425 
P     1.5949829    0.6470515    0.2336937 
H     0.3727116    3.9574596    0.5861058 
H    -1.8984010    3.1671758    1.3216355 
C     3.1078794    4.4831700   -3.3979329 
C     1.8992718    3.8781312   -3.7832994 
C     0.9112879    3.6106386   -2.8318264 
C     1.1067277    3.9427052   -1.4698875 
C     2.3253701    4.5523328   -1.0988637 
C     3.3146761    4.8202461   -2.0529638 
H     3.8818474    4.6893586   -4.1443486 
H     1.7311832    3.6092141   -4.8314309 
H    -0.0172397    3.1216189   -3.1477386 
H     2.4958892    4.8141699   -0.0491944 
H     4.2521928    5.2920773   -1.7410941 
C    -6.4506328    2.6137364   -0.2689695 
C    -5.7981508    2.0257782    0.8265076 
C    -4.4211616    2.1942453    0.9945735 
C    -3.6636182    2.9391072    0.0613394 
C    -4.3340681    3.5281085   -1.0353211 
C    -5.7151644    3.3705700   -1.1939844 
H    -7.5305491    2.4876586   -0.3970892 
H    -6.3654628    1.4306904    1.5489292 
H    -3.9134100    1.7238346    1.8442120 
H    -3.7784071    4.1410386   -1.7524667 
H    -6.2219646    3.8466144   -2.0398149 
C     1.7470502    0.1751444   -2.5225629 
C     2.2956093   -0.3857238   -3.6826914 
C     3.4462338   -1.1843948   -3.5989441 
C     4.0480656   -1.4265100   -2.3540340 
C     3.5039374   -0.8702537   -1.1903149 
C     2.3514749   -0.0612464   -1.2736410 
C     2.7771258    1.8908793    0.8930222 
C     4.0466171    2.1103698    0.3281227 
C     4.8969932    3.0870446    0.8694479 
C     4.4897845    3.8506703    1.9717901 
C     3.2184868    3.6444513    2.5338434 
C     2.3638904    2.6763398    1.9924637 
C     1.6603269   -0.7355486    1.4587392 
C     2.2468927   -0.5546848    2.7272712 
C     2.2889105   -1.6129929    3.6431264 
C     1.7642213   -2.8650915    3.3065047 
C     1.1088450   -1.9917296    1.1058194 
C     1.1895316   -3.0529734    2.0407003 
C     0.5249351   -2.3111597   -0.2330717 
C     1.2187250   -3.2661564   -1.0182081 
O     2.3966938   -3.7420130   -0.5133957 
C     2.5815791   -5.1669857   -0.3608817 
C     2.6810007   -5.5104718    1.1291619 
C     1.3463237   -5.4639722    1.8809841 
O     0.6248364   -4.2384792    1.6492297 
C     0.7470324   -3.6518308   -2.2820008 
C    -0.4474961   -3.1083940   -2.7660318 
C    -1.1681752   -2.1865085   -1.9970897 
C    -0.6922455   -1.7833717   -0.7326825 
C    -1.7595309   -1.1670884    1.9264304 
C    -1.9750500   -2.5410445    2.1604417 
C    -2.0930719   -3.0152932    3.4724998 
C    -1.9940301   -2.1276317    4.5553310 
C    -1.7716413   -0.7611110    4.3272679 
C    -1.6533454   -0.2807433    3.0159882 
C    -3.3173557   -0.5602263   -0.4749328 
C    -3.5762291    0.2035878   -1.6328680 
C    -4.8393904    0.1704470   -2.2346338 
C    -5.8620899   -0.6103607   -1.6750437 
C    -5.6173570   -1.3551906   -0.5124626 
C    -4.3516073   -1.3320567    0.0893412 
H     0.8387112    0.7838311   -2.5744345 
H     1.8192464   -0.2058199   -4.6518148 
H     3.8712901   -1.6268448   -4.5060584 
H     4.9353358   -2.0639997   -2.2859330 
H     3.9516339   -1.0911614   -0.2159316 
H     4.3686640    1.5339476   -0.5436915 
H     5.8803804    3.2543670    0.4181967 
H     5.1567080    4.6114413    2.3902481 
H     2.8914600    4.2425677    3.3906772 
H     1.3672847    2.5248303    2.4257877 
H     2.6926791    0.4052617    2.9974684 
H     2.7428193   -1.4601635    4.6275868 
H     1.7944851   -3.6907996    4.0228183 
H     3.5220212   -5.4285959   -0.8759992 
H     1.7517128   -5.7120745   -0.8483048 
H     3.4043326   -4.8154011    1.5929371 
H     3.0984608   -6.5290260    1.2389112 
H     0.6603848   -6.2444264    1.5132223 
H     1.5014144   -5.6341788    2.9637262 
H     1.3251652   -4.3638595   -2.8784772 
H    -0.8231025   -3.4053713   -3.7505466 
H    -2.1122750   -1.7895843   -2.3789549 
H    -2.0095944   -3.2425215    1.3206932 
H    -2.2471169   -4.0847376    3.6487662 
H    -2.0812513   -2.5029818    5.5803316 
H    -1.6816869   -0.0699781    5.1716216 
H    -1.4588959    0.7824756    2.8309663 
H    -2.7828438    0.8322152   -2.0555161 
H    -5.0312530    0.7704882   -3.1293679 
H    -6.8533277   -0.6279636   -2.1395493 
H    -6.4163728   -1.9567691   -0.0668065 
H    -4.1760914   -1.9094333    1.0016103 
