203
Energy =
C     3.3723281    1.3484838   -1.0174495 
C     3.8348622    0.3054173   -0.1821624 
C     3.5891857   -1.0585151   -0.5418015 
H     4.2349013    0.5424855    0.8116151 
Pd    1.6609625    0.0194111   -0.3140046 
P     0.1126413   -1.7065209   -0.4646867 
P     0.0584301    1.6535632    0.1348214 
H     3.1477962    1.0731435   -2.0601352 
H     3.5553516   -1.2908549   -1.6152722 
C     3.6038866    5.6003201   -0.4683634 
C     3.0355886    5.0537260   -1.6284902 
C     2.9724752    3.6662009   -1.7860496 
C     3.4705774    2.7953464   -0.7883265 
C     4.0305546    3.3622090    0.3794471 
C     4.0954166    4.7496488    0.5356325 
H     3.6664048    6.6864930   -0.3475938 
H     2.6447916    5.7089012   -2.4140068 
H     2.5272860    3.2433742   -2.6920528 
H     4.4225961    2.7157030    1.1695583 
H     4.5296877    5.1714159    1.4473722 
C     4.5100426   -4.4550374    1.9433755 
C     4.4319749   -4.5848271    0.5492596 
C     4.1270218   -3.4741075   -0.2453667 
C     3.8944050   -2.2068592    0.3330923 
C     3.9623494   -2.0934486    1.7419095 
C     4.2735901   -3.2025767    2.5347902 
H     4.7505267   -5.3218946    2.5675136 
H     4.6112327   -5.5544786    0.0730885 
H     4.0647576   -3.5859277   -1.3313626 
H     3.7562217   -1.1309450    2.2227833 
H     4.3272689   -3.0930773    3.6227266 
C    -1.1002869    1.9678788   -6.1192247 
C     0.0582303    2.3378064   -5.1588063 
C     1.0136734    1.1275259   -5.0691363 
C     0.8382566    3.5510751   -5.7272308 
C    -0.5131370    2.7170561   -3.7791315 
C    -0.0608259    2.1173539   -2.5940020 
C    -1.5108525    3.7060980   -3.6641417 
C    -2.0959383    4.0743278   -2.4352460 
C    -3.1729336    5.1758979   -2.3904296 
C    -3.8367091    5.2718592   -0.9999044 
C    -4.2774219    4.8891371   -3.4380287 
C    -2.4943432    6.5325276   -2.7156313 
C    -1.6376817    3.4305861   -1.2721115 
C    -0.6017942    2.4838884   -1.3501984 
C     0.7904643    2.8982775    1.2651338 
C     0.5301793    4.2728560    1.1777847 
C     1.0201752    5.1549759    2.1603992 
C     0.6670479    6.6555156    2.1489107 
C    -0.4238592    6.8933075    3.2267755 
C     0.1184406    7.1039656    0.7761722 
C     1.9087882    7.5183700    2.4829060 
C     1.7927599    4.6120251    3.2045920 
C     2.1194469    3.2430985    3.2901521 
C     1.5975404    2.3906083    2.3038947 
C     3.0072197    2.7312545    4.4416056 
C     3.4172187    1.2563758    4.2440611 
C     4.3013839    3.5801209    4.5243199 
C     2.2171174    2.8555974    5.7699809 
C    -1.4327285    1.0767539    1.0546965 
C    -1.6695476    1.4833508    2.3829545 
C    -2.8027004    1.0206590    3.0613932 
C    -3.7052797    0.1513473    2.4392658 
C    -2.3331762    0.2004950    0.4064525 
C    -3.4754467   -0.2537711    1.1143390 
C    -2.2239513   -0.2030897   -1.0293680 
C    -3.2097040    0.3263198   -1.9041009 
O    -4.0511358    1.2461089   -1.3464097 
C    -5.3907528    1.3918349   -1.8460968 
C    -6.2923085    0.2354885   -1.4095851 
C    -6.4199640    0.0841178    0.1284746 
C    -5.7009528   -1.1380805    0.7029306 
O    -4.2877635   -1.1179341    0.4334516 
C    -3.2621661   -0.0634835   -3.2517975 
C    -2.3375488   -0.9973369   -3.7316767 
C    -1.3528953   -1.5280996   -2.8911781 
C    -1.2820285   -1.1299440   -1.5399465 
C     0.8070510   -3.1834757   -1.3036260 
C     0.6937206   -4.4660422   -0.7560871 
C     1.2725682   -5.5811420   -1.3987553 
C     1.0789617   -6.9832706   -0.7886412 
C    -0.3958491   -7.4061108   -1.0237037 
C     1.3611485   -6.9540249    0.7351911 
C     2.0104030   -8.0292792   -1.4363635 
C     1.9588865   -5.3598503   -2.6035889 
C     2.1005581   -4.0748472   -3.1798133 
C     1.5271061   -2.9896217   -2.5030930 
C     2.8726969   -3.9063406   -4.5033256 
C     4.3197791   -4.4349311   -4.3300151 
C     2.9448695   -2.4299906   -4.9479065 
C     2.1528496   -4.7173590   -5.6116006 
C    -0.6511451   -2.3167985    1.0742366 
C    -1.7724331   -3.1681077    1.0030573 
C    -2.3122246   -3.7205742    2.1715669 
C    -3.4991473   -4.7017163    2.1452014 
C    -3.0124947   -6.0833609    2.6548264 
C    -4.0686776   -4.8739203    0.7212951 
C    -4.6281442   -4.1759523    3.0666322 
C    -1.7139287   -3.3710732    3.4045695 
C    -0.6128493   -2.5046920    3.5071027 
C    -0.0791651   -1.9848873    2.3087181 
C     0.0135595   -2.1084185    4.8590708 
C    -0.1865196   -0.5868982    5.0751596 
C     1.5277998   -2.4316857    4.8351828 
C    -0.6266653   -2.8592384    6.0447668 
H    -0.6994932    1.6815628   -7.1078017 
H    -1.7923109    2.8134651   -6.2726880 
H    -1.6803981    1.1193418   -5.7180056 
H     1.3719119    0.8579723   -6.0774767 
H     0.5065617    0.2457993   -4.6391079 
H     1.9046430    1.3486730   -4.4540274 
H     0.1848090    4.4338439   -5.8375137 
H     1.2562996    3.3104080   -6.7210562 
H     1.6738459    3.8289595   -5.0602631 
H     0.7038675    1.3360645   -2.6142574 
H    -1.8577508    4.2039866   -4.5755118 
H    -4.6351651    6.0333368   -1.0193681 
H    -3.1153359    5.5715270   -0.2194755 
H    -4.2861207    4.3085798   -0.7007443 
H    -5.0563669    5.6704337   -3.3913543 
H    -3.8802122    4.8797043   -4.4672861 
H    -4.7546509    3.9129138   -3.2483142 
H    -1.7021532    6.7598013   -1.9808472 
H    -2.0338466    6.5199459   -3.7189999 
H    -3.2365014    7.3506331   -2.6904837 
H    -2.0907378    3.6441249   -0.3016043 
H    -0.0610757    4.6522255    0.3431511 
H    -0.0604788    6.6085002    4.2297709 
H    -0.7121402    7.9595739    3.2552437 
H    -1.3260982    6.2948642    3.0088233 
H    -0.0647216    8.1920873    0.7856424 
H     0.8321943    6.8815295   -0.0363146 
H    -0.8408306    6.6132378    0.5357498 
H     2.2993881    7.3123983    3.4939591 
H     2.7216989    7.3392856    1.7594608 
H     1.6433012    8.5893098    2.4464520 
H     2.1683010    5.2862045    3.9804164 
H     1.8073605    1.3157259    2.3260951 
H     3.9760969    1.1175580    3.3009308 
H     4.0745247    0.9368288    5.0706572 
H     2.5466011    0.5798682    4.2355904 
H     4.8761370    3.5161926    3.5832694 
H     4.9446409    3.2134794    5.3434775 
H     4.0869743    4.6441502    4.7205006 
H     1.2932895    2.2522749    5.7324491 
H     2.8297984    2.5007803    6.6181108 
H     1.9323295    3.9030109    5.9703265 
H    -0.9788132    2.1674394    2.8817438 
H    -2.9874671    1.3434613    4.0911346 
H    -4.5813279   -0.2083529    2.9847876 
H    -5.3936562    1.5096252   -2.9453114 
H    -5.7364240    2.3434435   -1.4106190 
H    -5.9123858   -0.7014247   -1.8586026 
H    -7.2865907    0.4136249   -1.8579813 
H    -6.0405015    0.9905223    0.6367411 
H    -7.4837743   -0.0082373    0.4134513 
H    -6.0514901   -2.0645629    0.2195362 
H    -5.8958564   -1.2370776    1.7865121 
H    -4.0161996    0.3545642   -3.9232043 
H    -2.3862378   -1.3182567   -4.7774709 
H    -0.6540159   -2.2693834   -3.2848133 
H     0.1536869   -4.6023273    0.1834474 
H    -1.0931310   -6.6914739   -0.5513885 
H    -0.5836389   -8.4053561   -0.5911590 
H    -0.6272361   -7.4454194   -2.1024591 
H     2.3835610   -6.5971090    0.9441444 
H     0.6576175   -6.2974582    1.2756318 
H     1.2526736   -7.9695296    1.1548571 
H     1.8709756   -9.0073818   -0.9448571 
H     3.0724981   -7.7443227   -1.3297496 
H     1.7941611   -8.1681919   -2.5099943 
H     2.4104150   -6.2109160   -3.1195872 
H     1.6362864   -1.9743101   -2.8952837 
H     4.8606723   -3.8603632   -3.5571055 
H     4.3354846   -5.4986259   -4.0371735 
H     4.8772998   -4.3390527   -5.2785711 
H     3.5077362   -2.3535070   -5.8938854 
H     3.4651705   -1.8019217   -4.2018315 
H     1.9416204   -2.0026095   -5.1214029 
H     1.1175661   -4.3585046   -5.7493288 
H     2.1102178   -5.7923732   -5.3660993 
H     2.6874417   -4.6111076   -6.5723675 
H    -2.2101839   -3.3849329    0.0260753 
H    -2.6279030   -6.0224548    3.6877121 
H    -2.2028770   -6.4734649    2.0127080 
H    -3.8434357   -6.8112718    2.6438720 
H    -4.3914922   -3.9072980    0.2980669 
H    -3.3258788   -5.3191075    0.0359318 
H    -4.9412358   -5.5492040    0.7476954 
H    -4.9646782   -3.1787944    2.7358752 
H    -4.2985161   -4.0925748    4.1163504 
H    -5.4935804   -4.8617404    3.0413976 
H    -2.1333333   -3.7977145    4.3188437 
H     0.7854275   -1.3118718    2.3244820 
H     0.3060246   -0.2635527    6.0098029 
H    -1.2595646   -0.3414890    5.1425471 
H     0.2346091    0.0018613    4.2422979 
H     1.6990951   -3.5078297    4.6599315 
H     1.9932840   -2.1557424    5.7983277 
H     2.0482966   -1.8769710    4.0380265 
H    -0.1381299   -2.5511764    6.9853394 
H    -1.7032188   -2.6329394    6.1410177 
H    -0.5071719   -3.9526850    5.9472001 
