203
Energy =
C     3.5029571    1.2584440   -0.7838593 
C     3.8633911    0.1221350   -0.0271850 
C     3.5135711   -1.1974807   -0.4485500 
H     4.2602703    0.2743359    0.9850657 
Pd    1.6656683    0.0162339   -0.2252731 
P     0.0806969   -1.6760880   -0.4794013 
P     0.0617768    1.6571917    0.1940056 
H     3.2269006    1.1008900   -1.8392173 
H     3.4866048   -1.3967499   -1.5281019 
C     4.4001000    5.3374790    0.2348551 
C     3.3754009    5.0383383   -0.6764340 
C     3.0945697    3.7098481   -1.0078022 
C     3.8205816    2.6493489   -0.4194717 
C     4.8581979    2.9643637    0.4867663 
C     5.1470109    4.2958046    0.8056459 
H     4.6231317    6.3779663    0.4916358 
H     2.7879431    5.8440625   -1.1286168 
H     2.2844679    3.4840477   -1.7090025 
H     5.4701076    2.1641822    0.9151204 
H     5.9688037    4.5226221    1.4926110 
C     4.0744256   -4.6914982    2.0077646 
C     3.9042464   -3.4331689    2.6103824 
C     3.7165799   -2.2947115    1.8218307 
C     3.6986732   -2.3842807    0.4094028 
C     3.8614939   -3.6559437   -0.1819005 
C     4.0529232   -4.7951526    0.6095765 
H     4.2219240   -5.5829763    2.6260497 
H     3.9179002   -3.3409532    3.7015059 
H     3.5670772   -1.3237863    2.3072344 
H     3.8351412   -3.7481417   -1.2729359 
H     4.1869809   -5.7691933    0.1286097 
C     0.3076002    0.9264519   -5.2921441 
C     0.3082679    2.4551422   -5.0366561 
C     1.7715688    2.9501565   -4.8974805 
C    -0.3363305    3.1563838   -6.2495823 
C    -0.4437421    2.7510310   -3.7245466 
C    -0.0004563    2.1536654   -2.5289101 
C    -1.5547076    3.6071646   -3.6436989 
C    -2.2420358    3.8660973   -2.4343089 
C    -3.4440126    4.8298741   -2.4308922 
C    -4.4973059    4.3494210   -3.4608309 
C    -2.9477053    6.2469857   -2.8192803 
C    -4.1141228    4.9071039   -1.0430133 
C    -1.7807201    3.2415380   -1.2661542 
C    -0.6472652    2.4057347   -1.3117891 
C     0.7422048    3.0105391    1.2258542 
C     0.3398557    4.3495235    1.0948852 
C     0.8273503    5.3268611    1.9796196 
C     0.4011478    6.8054956    1.8861383 
C    -0.3793687    7.1808424    3.1726340 
C    -0.5072935    7.0688200    0.6663473 
C     1.6558907    7.7064858    1.7606970 
C     1.7149126    4.9137582    2.9942341 
C     2.1490552    3.5820266    3.1425914 
C     1.6573771    2.6365097    2.2259979 
C     3.0617565    3.1704993    4.3147476 
C     2.1679986    3.0105344    5.5733581 
C     3.7779498    1.8292846    4.0372925 
C     4.1408744    4.2461475    4.5842027 
C    -1.3614263    1.0350410    1.1915981 
C    -1.4693397    1.3781370    2.5551569 
C    -2.5058536    0.8467644    3.3297108 
C    -3.4402457   -0.0317521    2.7701741 
C    -2.2988058    0.1527725    0.6050907 
C    -3.3416187   -0.3735761    1.4118203 
C    -2.3146088   -0.2133255   -0.8443090 
C    -3.3951774    0.2835552   -1.6193321 
O    -4.2413785    1.1421876   -0.9734263 
C    -5.6299318    1.1964728   -1.3481685 
C    -6.4119973   -0.0121796   -0.8333194 
C    -6.3907666   -0.1642806    0.7092556 
C    -5.5576892   -1.3470714    1.2040508 
O    -4.1842958   -1.2500296    0.7876206 
C    -3.5326591   -0.0691740   -2.9713935 
C    -2.6034192   -0.9373630   -3.5533461 
C    -1.5347462   -1.4467432   -2.8078851 
C    -1.3795172   -1.0852491   -1.4541000 
C     0.7587065   -3.0736111   -1.4571117 
C     0.6733054   -4.4082074   -1.0300291 
C     1.2211335   -5.4461373   -1.8066076 
C     1.0581792   -6.9187321   -1.3796766 
C     0.9079923   -7.0503373    0.1540944 
C     2.2687210   -7.7735091   -1.8236993 
C    -0.2266618   -7.4635783   -2.0596050 
C     1.8628893   -5.1023765   -3.0143819 
C     1.9850086   -3.7708996   -3.4593320 
C     1.4273427   -2.7617472   -2.6543147 
C     2.6751657   -3.3884629   -4.7835089 
C     3.4062105   -4.5856728   -5.4260968 
C     3.7124752   -2.2648327   -4.5286891 
C     1.5911267   -2.8771008   -5.7682988 
C    -0.5996179   -2.3872684    1.0561504 
C    -1.6712503   -3.2974650    1.0018298 
C    -2.1488771   -3.8958355    2.1796067 
C    -3.2754489   -4.9474608    2.1724449 
C    -3.8898304   -5.1175673    0.7669613 
C    -4.3971677   -4.5221931    3.1526912 
C    -2.6882500   -6.3089890    2.6264866 
C    -1.5433486   -3.5198069    3.3961480 
C    -0.4971080   -2.5808860    3.4837866 
C    -0.0189950   -2.0281176    2.2832142 
C     0.0997028   -2.2154133    4.8564438 
C     1.0961256   -1.0417394    4.7494174 
C     0.8419207   -3.4550614    5.4188970 
C    -1.0317992   -1.8010672    5.8302066 
H     0.8610798    0.6920329   -6.2187570 
H    -0.7221230    0.5438606   -5.3927070 
H     0.7872860    0.3759142   -4.4641575 
H     2.3305706    2.7648645   -5.8319566 
H     2.3016306    2.4278253   -4.0812719 
H     1.8036237    4.0327751   -4.6837487 
H    -1.3812410    2.8316168   -6.3988799 
H     0.2262148    2.9076229   -7.1659004 
H    -0.3250266    4.2550932   -6.1403368 
H     0.8535910    1.4667671   -2.5341802 
H    -1.9124851    4.0937727   -4.5544029 
H    -5.3739880    5.0211777   -3.4531948 
H    -4.8392849    3.3288544   -3.2195914 
H    -4.0939788    4.3385963   -4.4877941 
H    -3.7911458    6.9603973   -2.8239823 
H    -2.1935152    6.6077123   -2.0978645 
H    -2.4904979    6.2559570   -3.8239252 
H    -4.4490016    3.9130478   -0.7013331 
H    -3.4283501    5.3187236   -0.2817275 
H    -4.9939518    5.5716947   -1.0897700 
H    -2.3002526    3.3787105   -0.3155226 
H    -0.3470812    4.6245551    0.2931461 
H     0.2420510    7.0522750    4.0757126 
H    -0.7019244    8.2366358    3.1312624 
H    -1.2772043    6.5477547    3.2838851 
H    -0.7720165    8.1391945    0.6232890 
H    -0.0035483    6.8081143   -0.2816308 
H    -1.4495701    6.4961613    0.7252596 
H     2.3385963    7.5840018    2.6189160 
H     2.2184745    7.4677525    0.8423545 
H     1.3579030    8.7690767    1.7172170 
H     2.0840382    5.6646097    3.6989680 
H     1.9692891    1.5883307    2.2859578 
H     1.3993543    2.2340723    5.4116281 
H     2.7781422    2.7170281    6.4467309 
H     1.6525894    3.9566556    5.8142470 
H     3.0681639    0.9892116    3.9519547 
H     4.4641690    1.5932374    4.8685661 
H     4.3705505    1.8824188    3.1076855 
H     3.7013545    5.2055727    4.9054620 
H     4.8137454    3.9093077    5.3919107 
H     4.7459357    4.4307252    3.6806065 
H    -0.7539391    2.0698891    3.0067448 
H    -2.5898754    1.1239243    4.3854911 
H    -4.2357148   -0.4506894    3.3913640 
H    -5.7418198    1.3047820   -2.4422859 
H    -5.9963019    2.1275506   -0.8861921 
H    -6.0139387   -0.9244098   -1.3160605 
H    -7.4514843    0.1004731   -1.1912810 
H    -6.0097813    0.7603261    1.1821961 
H    -7.4171091   -0.3092194    1.0926269 
H    -5.9082674   -2.2906410    0.7551832 
H    -5.6337457   -1.4537072    2.3013667 
H    -4.3574218    0.3285636   -3.5678364 
H    -2.7160616   -1.2251797   -4.6037680 
H    -0.8349390   -2.1398758   -3.2796100 
H     0.1850521   -4.6341810   -0.0809770 
H     1.7574060   -6.5864855    0.6843679 
H     0.8642045   -8.1171846    0.4333332 
H    -0.0196116   -6.5793295    0.5212352 
H     2.3611965   -7.8301184   -2.9216652 
H     3.2138078   -7.3699474   -1.4199680 
H     2.1517992   -8.8069967   -1.4544569 
H    -0.3904130   -8.5212655   -1.7848269 
H    -0.1498868   -7.3991040   -3.1591986 
H    -1.1116891   -6.8822024   -1.7448992 
H     2.2869099   -5.9007671   -3.6253809 
H     1.5112784   -1.7118945   -2.9582612 
H     4.1759428   -5.0010807   -4.7517556 
H     2.7072326   -5.3957286   -5.6974045 
H     3.9091907   -4.2602553   -6.3529047 
H     4.2306537   -2.0045688   -5.4683394 
H     4.4730442   -2.5875295   -3.7956348 
H     3.2382180   -1.3418886   -4.1499736 
H     1.0577647   -2.0013029   -5.3597466 
H     0.8459280   -3.6657482   -5.9720476 
H     2.0508331   -2.5787514   -6.7275899 
H    -2.1264596   -3.5236864    0.0350316 
H    -3.1495065   -5.4982563    0.0408331 
H    -4.2880494   -4.1620994    0.3834864 
H    -4.7183783   -5.8455098    0.8070607 
H    -4.0315215   -4.4504844    4.1912548 
H    -4.8111838   -3.5404066    2.8698599 
H    -5.2169876   -5.2621172    3.1385219 
H    -2.2603816   -6.2467808    3.6421695 
H    -1.8883629   -6.6385314    1.9409605 
H    -3.4761272   -7.0832925    2.6354878 
H    -1.9079223   -3.9783919    4.3211858 
H     0.7986204   -1.3024043    2.2795965 
H     1.4706825   -0.7726459    5.7520948 
H     0.6185163   -0.1467305    4.3127352 
H     1.9695544   -1.3061221    4.1295886 
H     0.1525166   -4.3059350    5.5580847 
H     1.2965034   -3.2214352    6.3985445 
H     1.6410169   -3.7764994    4.7287941 
H    -0.6063132   -1.5238217    6.8110035 
H    -1.5883425   -0.9348950    5.4338613 
H    -1.7509378   -2.6204760    6.0000272 
