203
Energy =
C     3.3865670    1.4024993   -0.9690651 
C     3.8440860    0.3233225   -0.1771132 
C     3.5988112   -1.0250840   -0.5857669 
H     4.2437163    0.5207453    0.8254592 
Pd    1.6672789    0.0480285   -0.3286162 
P     0.1321659   -1.6926260   -0.4783340 
P     0.0585809    1.6639199    0.1303403 
H     3.1631377    1.1741369   -2.0233039 
H     3.5579104   -1.2194326   -1.6663317 
C     3.7104076    5.6256367   -0.2512659 
C     3.1112227    5.1371734   -1.4214782 
C     3.0122926    3.7587890   -1.6309914 
C     3.5087511    2.8376541   -0.6791231 
C     4.0982759    3.3461377    0.5008091 
C     4.1959865    4.7248782    0.7104098 
H     3.8007834    6.7043372   -0.0887307 
H     2.7231834    5.8310490   -2.1744325 
H     2.5420763    3.3830420   -2.5433640 
H     4.4896499    2.6613460    1.2585022 
H     4.6531338    5.1013366    1.6307010 
C     4.5550562   -4.5016844    1.7705879 
C     4.3087666   -3.2740308    2.4083387 
C     3.9849567   -2.1399017    1.6572104 
C     3.9121542   -2.2030872    0.2455473 
C     4.1519007   -3.4464377   -0.3799490 
C     4.4714814   -4.5819576    0.3731123 
H     4.8066275   -5.3882784    2.3617791 
H     4.3656079   -3.2035798    3.4992577 
H     3.7731856   -1.1965770    2.1728940 
H     4.0834230   -3.5193322   -1.4693297 
H     4.6565936   -5.5326571   -0.1376004 
C     1.5811255    2.6472035   -5.1127365 
C     0.0461889    2.4377052   -5.1363609 
C    -0.5408616    3.2846693   -6.2845326 
C    -0.2577643    0.9441639   -5.4186461 
C    -0.5560887    2.8158448   -3.7670124 
C    -0.0744744    2.1962558   -2.5969229 
C    -1.5981557    3.7481737   -3.6204131 
C    -2.1932373    4.0524326   -2.3742960 
C    -3.3225204    5.0978348   -2.2973346 
C    -2.7280491    6.4891097   -2.6393656 
C    -3.9510749    5.1595792   -0.8888198 
C    -4.4376191    4.7499270   -3.3152096 
C    -1.7037379    3.3975809   -1.2346878 
C    -0.6281886    2.4945773   -1.3434744 
C     0.7865031    2.9125420    1.2583902 
C     1.5853096    2.4065288    2.3045351 
C     2.0817060    3.2570207    3.3046829 
C     2.9465123    2.7422468    4.4724587 
C     2.1213840    2.8495033    5.7810864 
C     4.2324448    3.5978298    4.5976455 
C     3.3711565    1.2715762    4.2732347 
C     1.7458124    4.6243174    3.2205798 
C     0.9858595    5.1661295    2.1667396 
C     0.5151735    4.2842519    1.1738723 
C     0.6123355    6.6617244    2.1525734 
C     1.8072485    7.5385368    2.5992068 
C     0.1684153    7.1251843    0.7465436 
C    -0.5657341    6.8622242    3.1429067 
C    -1.4088438    1.0710478    1.0811514 
C    -1.6178390    1.4830811    2.4133543 
C    -2.7192519    1.0022174    3.1293599 
C    -3.6182309    0.1054929    2.5428424 
C    -2.3114333    0.1740425    0.4655138 
C    -3.4191418   -0.3037285    1.2146169 
C    -2.2514360   -0.2425988   -0.9693333 
C    -3.2995296    0.2333195   -1.8011236 
O    -4.1284135    1.1538805   -1.2256930 
C    -5.4915741    1.2692737   -1.6660541 
C    -6.3539703    0.0988149   -1.1893626 
C    -6.4114968   -0.0559191    0.3523285 
C    -5.6314720   -1.2554787    0.8940933 
O    -4.2322107   -1.1919593    0.5669512 
C    -3.4327703   -0.2193366   -3.1235693 
C    -2.5230355   -1.1578823   -3.6210731 
C    -1.4685343   -1.6243560   -2.8288413 
C    -1.3187609   -1.1649013   -1.5040465 
C     0.8414806   -3.1304964   -1.3682765 
C     0.7852458   -4.4336870   -0.8541116 
C     1.3594103   -5.5096297   -1.5574173 
C     1.2261201   -6.9405497   -0.9992000 
C     1.4189432   -6.9536374    0.5380290 
C     2.2599939   -7.9012891   -1.6262340 
C    -0.2033858   -7.4455036   -1.3331589 
C     1.9818516   -5.2368288   -2.7922332 
C     2.0610410   -3.9360071   -3.3326164 
C     1.4965940   -2.8855253   -2.5891893 
C     2.7206155   -3.6272349   -4.6920527 
C     1.6334413   -3.0820000   -5.6553883 
C     3.3611919   -4.8787771   -5.3268899 
C     3.8241564   -2.5544494   -4.5054456 
C    -0.5791279   -2.3505989    1.0670090 
C    -1.6767070   -3.2323174    0.9965996 
C    -2.1860082   -3.8184284    2.1623767 
C    -3.3430108   -4.8346565    2.1332618 
C    -2.8039501   -6.2129322    2.5971802 
C    -3.9348085   -4.9879189    0.7162041 
C    -4.4697817   -4.3696869    3.0894572 
C    -1.5828559   -3.4701894    3.3931068 
C    -0.5067682   -2.5728149    3.4957970 
C    -0.0021054   -2.0197817    2.2994299 
C     0.1189145   -2.1751846    4.8477503 
C    -0.1370986   -0.6658733    5.0889129 
C     1.6435608   -2.4426665    4.8060569 
C    -0.4808916   -2.9673168    6.0278462 
H     2.0149819    2.3991550   -6.0974548 
H     2.0706745    1.9978606   -4.3654299 
H     1.8357373    3.6958001   -4.8798688 
H    -0.0772355    2.9866621   -7.2406737 
H    -0.3457606    4.3617502   -6.1381865 
H    -1.6306784    3.1383008   -6.3846968 
H     0.1463214    0.2903410   -4.6262449 
H     0.1892006    0.6358004   -6.3809933 
H    -1.3457237    0.7704916   -5.4664730 
H     0.7274069    1.4510714   -2.6504252 
H    -1.9787547    4.2560565   -4.5097138 
H    -3.5131788    7.2649611   -2.5925401 
H    -2.2951321    6.5035091   -3.6547673 
H    -1.9301345    6.7598144   -1.9257143 
H    -4.7826649    5.8850786   -0.8828597 
H    -4.3494174    4.1766200   -0.5817330 
H    -3.2213730    5.4879674   -0.1275271 
H    -4.0667013    4.7603950   -4.3542491 
H    -4.8543047    3.7489591   -3.1124719 
H    -5.2571338    5.4871054   -3.2479727 
H    -2.1571562    3.5650200   -0.2552675 
H     1.8039739    1.3333583    2.3237565 
H     1.2014622    2.2428724    5.7130271 
H     2.7130586    2.4883147    6.6414005 
H     1.8268627    3.8936437    5.9845103 
H     4.8486344    3.2354896    5.4392197 
H     4.8399879    3.5339837    3.6777642 
H     4.0066369    4.6612173    4.7839703 
H     2.5054891    0.5898870    4.2425156 
H     3.9498926    1.1417393    3.3408420 
H     4.0129697    0.9507634    5.1114652 
H     2.1033615    5.2969500    4.0057041 
H    -0.0739992    4.6612007    0.3361977 
H     2.6847972    7.3721426    1.9519512 
H     1.5320482    8.6060277    2.5418140 
H     2.1066659    7.3351846    3.6413753 
H     0.9453202    6.9170631   -0.0095605 
H    -0.0230217    8.2118947    0.7559104 
H    -0.7653935    6.6322919    0.4244259 
H    -0.2787361    6.5617319    4.1659200 
H    -0.8730320    7.9233229    3.1681046 
H    -1.4376886    6.2548795    2.8415508 
H    -0.9294374    2.1857467    2.8880869 
H    -2.8797991    1.3309440    4.1612398 
H    -4.4679171   -0.2711856    3.1177167 
H    -5.5440708    1.3837282   -2.7645915 
H    -5.8363204    2.2157090   -1.2187781 
H    -5.9826890   -0.8330904   -1.6556594 
H    -7.3697868    0.2634192   -1.5923888 
H    -6.0405699    0.8624382    0.8452367 
H    -7.4590367   -0.1822442    0.6812106 
H    -5.7785967   -1.3620369    1.9845260 
H    -5.9730267   -2.1915765    0.4230462 
H    -4.2420724    0.1482695   -3.7593218 
H    -2.6338757   -1.5290294   -4.6450864 
H    -0.7768421   -2.3631687   -3.2391714 
H     0.2928504   -4.6093341    0.1045109 
H     2.3922357   -6.5197739    0.8227938 
H     1.3763222   -7.9922530    0.9098533 
H     0.6298656   -6.3868580    1.0615002 
H     2.1039341   -8.0309042   -2.7111659 
H     3.2921232   -7.5418042   -1.4653857 
H     2.1706731   -8.8988636   -1.1629450 
H    -0.3513831   -8.4697122   -0.9456434 
H    -0.3721222   -7.4591623   -2.4241452 
H    -0.9679088   -6.7907066   -0.8778937 
H     2.4226517   -6.0639047   -3.3499210 
H     1.5583868   -1.8564764   -2.9629125 
H     0.8288938   -3.8246050   -5.7978070 
H     1.1764212   -2.1540596   -5.2680974 
H     2.0736968   -2.8551693   -6.6429004 
H     3.8280929   -4.6097690   -6.2899493 
H     2.6117419   -5.6637842   -5.5287136 
H     4.1478815   -5.3061949   -4.6803506 
H     4.6040074   -2.9039691   -3.8061813 
H     3.4131388   -1.6059300   -4.1159253 
H     4.3076649   -2.3314431   -5.4728912 
H    -2.1201884   -3.4465148    0.0216720 
H    -2.3980664   -6.1652352    3.6226212 
H    -1.9976884   -6.5623262    1.9279847 
H    -3.6126670   -6.9654710    2.5859780 
H    -4.2931989   -4.0208429    0.3233430 
H    -3.1929791   -5.3942963    0.0059853 
H    -4.7870668   -5.6886850    0.7415920 
H    -4.8439945   -3.3750865    2.7934011 
H    -4.1231609   -4.3051651    4.1350129 
H    -5.3136144   -5.0817302    3.0609322 
H    -1.9780605   -3.9226094    4.3057333 
H     0.8416047   -1.3209298    2.3156749 
H     0.3549707   -0.3361506    6.0215582 
H    -1.2180642   -0.4644060    5.1736989 
H     0.2481339   -0.0495374    4.2587311 
H     1.8506741   -3.5097940    4.6155305 
H     2.1076922   -2.1625297    5.7685834 
H     2.1370508   -1.8594982    4.0119994 
H     0.0068572   -2.6567470    6.9680035 
H    -1.5636429   -2.7813333    6.1394801 
H    -0.3235387   -4.0541031    5.9112721 
