104
Energy =
C    -0.4548247    3.8196403   -0.0159348 
C    -1.2690818    3.3742567   -1.0816261 
C    -2.5214030    2.7282146   -0.8421749 
H    -0.8672718    3.3935171   -2.1030379 
Pd   -0.8769615    1.5773966    0.1223410 
P     1.2786457    0.8196423    0.7084999 
P    -1.7784118   -0.5645035    0.2575516 
H    -0.9505394    4.0038651    0.9503286 
H    -3.0932613    3.0406770    0.0440079 
C     3.3880828    5.7185983   -0.3463690 
C     2.5947032    5.8935505    0.7967094 
C     1.3528856    5.2561069    0.8933191 
C     0.8714919    4.4419642   -0.1566500 
C     1.6844946    4.2717468   -1.3014058 
C     2.9292429    4.9009418   -1.3926519 
H     4.3620967    6.2129447   -0.4217883 
H     2.9464198    6.5232400    1.6199621 
H     0.7405855    5.3912454    1.7910403 
H     1.3498479    3.6341583   -2.1242229 
H     3.5460459    4.7527939   -2.2850859 
C    -4.8309306    0.8472377   -3.9547104 
C    -3.4323424    0.9212726   -4.0675236 
C    -2.6769313    1.5359092   -3.0640942 
C    -3.3022845    2.0988142   -1.9261012 
C    -4.7085349    2.0238547   -1.8330061 
C    -5.4647237    1.4026123   -2.8343970 
H    -5.4213133    0.3583356   -4.7362951 
H    -2.9284636    0.4885582   -4.9385391 
H    -1.5845523    1.5523414   -3.1495031 
H    -5.2117665    2.4571012   -0.9626455 
H    -6.5534900    1.3480550   -2.7358324 
C    -2.0208287   -2.7780431    1.9806384 
C    -2.0541284   -3.4031761    3.2316138 
C    -1.8138238   -2.6595197    4.3987800 
C    -1.5359210   -1.2877336    4.3142709 
C    -1.4943421   -0.6577684    3.0623671 
C    -1.7307274   -1.4014921    1.8932403 
C    -3.5404596   -0.8671407   -0.1757896 
C    -4.4718121   -0.0780611    0.5314960 
C    -5.8446875   -0.3161971    0.4052795 
C    -6.3043094   -1.3318455   -0.4467585 
C    -5.3839838   -2.1174729   -1.1545321 
C    -4.0052655   -1.8990759   -1.0128218 
C    -0.6998254   -1.5073302   -0.8903805 
C    -1.0350624   -1.5402868   -2.2624299 
C    -0.1866110   -2.1682455   -3.1804520 
C     1.0046504   -2.7662423   -2.7520111 
C     0.5331135   -2.0466171   -0.4476918 
C     1.3610510   -2.7014349   -1.3971390 
C     1.0510626   -1.9858942    0.9540870 
C     1.2253447   -3.2139678    1.6334485 
O     0.7630141   -4.3344214    1.0008343 
C     1.6563024   -5.4494842    0.7837112 
C     1.9552701   -5.5869941   -0.7133247 
C     2.9275454   -4.5405657   -1.2681300 
O     2.5450053   -3.1963278   -0.9196353 
C     1.7810957   -3.2601241    2.9215899 
C     2.1895509   -2.0729113    3.5374381 
C     2.0387234   -0.8443645    2.8810309 
C     1.4717659   -0.7917412    1.5931257 
C     2.2516484    0.5252871   -0.8228717 
C     3.5096625   -0.1094368   -0.7616778 
C     4.2161602   -0.3754294   -1.9413512 
C     3.6702455   -0.0250463   -3.1858912 
C     2.4091355    0.5863804   -3.2528462 
C     1.7018918    0.8587915   -2.0755715 
C     2.2015175    2.0144242    1.7500445 
C     1.5463256    2.4953660    2.9048347 
C     2.2062363    3.3640467    3.7825132 
C     3.5162716    3.7823245    3.4999878 
C     4.1551062    3.3384479    2.3338920 
C     3.5053742    2.4543934    1.4598181 
H    -2.1985367   -3.3622761    1.0717033 
H    -2.2654396   -4.4754613    3.2959270 
H    -1.8436182   -3.1517840    5.3764214 
H    -1.3466258   -0.7071164    5.2230201 
H    -1.2679037    0.4123930    2.9861716 
H    -4.1136990    0.7198569    1.1934690 
H    -6.5571684    0.2983521    0.9653119 
H    -7.3785696   -1.5138028   -0.5545857 
H    -5.7370293   -2.9176180   -1.8134051 
H    -3.3011447   -2.5462550   -1.5432040 
H    -1.9564997   -1.0675696   -2.6120678 
H    -0.4550246   -2.1896380   -4.2417639 
H     1.6714527   -3.2531484   -3.4689038 
H     1.1378358   -6.3511154    1.1521110 
H     2.5839435   -5.3143340    1.3707952 
H     0.9955728   -5.5416384   -1.2597444 
H     2.3866909   -6.5876483   -0.9045466 
H     3.9275244   -4.6536932   -0.8184198 
H     3.0357159   -4.6511240   -2.3642948 
H     1.8744037   -4.2214930    3.4356724 
H     2.6241185   -2.1012978    4.5418835 
H     2.3727907    0.0727445    3.3724186 
H     3.9198821   -0.4232821    0.2037289 
H     5.1898670   -0.8730211   -1.8885353 
H     4.2229635   -0.2416628   -4.1061153 
H     1.9691107    0.8378890   -4.2233800 
H     0.6993626    1.2994801   -2.1183779 
H     0.5171191    2.1811807    3.1167170 
H     1.6953743    3.7212195    4.6827692 
H     4.0320539    4.4664683    4.1816862 
H     5.1661385    3.6843062    2.0959219 
H     4.0106020    2.1219304    0.5487149 
