104
Energy =
C     2.1283982   -1.2055139    2.9328672 
C     1.4261186   -0.1429460    3.5451359 
C     0.0079558   -0.1697672    3.6874126 
H     1.9678564    0.7861865    3.7641286 
Pd    0.5457586   -0.3496906    1.5227765 
P    -1.6063430   -0.0218798    0.6548918 
P     1.5413593   -0.4588700   -0.5928834 
H     1.6089464   -2.1734130    2.8436512 
H    -0.4687309   -1.1510213    3.8185819 
C     6.3852727   -1.4362682    2.4003114 
C     5.5279811   -2.2750398    1.6702393 
C     4.1451203   -2.1947593    1.8545910 
C     3.5881913   -1.2619998    2.7598284 
C     4.4633911   -0.4256546    3.4903418 
C     5.8483668   -0.5173774    3.3150227 
H     7.4690764   -1.5037582    2.2612840 
H     5.9402072   -2.9906740    0.9520465 
H     3.4787155   -2.8429754    1.2742946 
H     4.0615697    0.2797274    4.2249468 
H     6.5131487    0.1264406    3.9002683 
C    -2.3652232    3.1425368    5.0815726 
C    -2.8328047    1.8261832    5.1995187 
C    -2.0508261    0.7569425    4.7455747 
C    -0.7831504    0.9812811    4.1648375 
C    -0.3230943    2.3153779    4.0556804 
C    -1.1042968    3.3818900    4.5087380 
H    -2.9770199    3.9795728    5.4332979 
H    -3.8134184    1.6276131    5.6442556 
H    -2.4247616   -0.2684112    4.8365702 
H     0.6495241    2.5227314    3.5952194 
H    -0.7329766    4.4073864    4.4106654 
C    -2.7011655   -1.9154530    2.3917097 
C    -3.6427046   -2.4366904    3.2875766 
C    -4.7768743   -1.6813520    3.6309959 
C    -4.9605737   -0.4075375    3.0760972 
C    -4.0231711    0.1159470    2.1719657 
C    -2.8912848   -0.6394045    1.8153756 
C    -2.0487374    1.7028312    0.2358503 
C    -1.2066380    2.7496171    0.6555465 
C    -1.5137492    4.0733527    0.3168138 
C    -2.6595601    4.3549853   -0.4424893 
C    -3.4981248    3.3125215   -0.8675856 
C    -3.1961593    1.9869457   -0.5337310 
C    -1.9217307   -0.9557688   -0.9085707 
C    -2.7543846   -2.0927037   -0.9202579 
C    -2.9856300   -2.7862398   -2.1144735 
C    -2.4065085   -2.3524900   -3.3114977 
C    -1.3133307   -0.5108522   -2.1078685 
C    -1.5857904   -1.2148192   -3.3065819 
C    -0.4700397    0.7186394   -2.2210218 
C    -0.9922856    1.7778567   -3.0054833 
O    -2.2498256    1.6077439   -3.5138859 
C    -2.4665910    1.7412408   -4.9363073 
C    -2.8669576    0.3820885   -5.5197899 
C    -1.7123232   -0.6171682   -5.6496418 
O    -0.9557709   -0.7477293   -4.4302199 
C    -0.2740473    2.9682757   -3.1937169 
C     0.9960670    3.1032395   -2.6235323 
C     1.5476451    2.0601292   -1.8697278 
C     0.8250044    0.8671474   -1.6635975 
C     3.3463033   -0.1167088   -0.5993563 
C     4.2396987   -0.7468494   -1.4873218 
C     5.6020970   -0.4181469   -1.4618384 
C     6.0833401    0.5353850   -0.5533845 
C     5.2003143    1.1570576    0.3424452 
C     3.8405815    0.8258941    0.3271749 
C     1.3283987   -2.0187892   -1.5271454 
C     1.0117527   -3.1977161   -0.8243961 
C     0.8613271   -4.4084757   -1.5141506 
C     1.0238502   -4.4459202   -2.9073609 
C     1.3319320   -3.2717275   -3.6121713 
C     1.4834024   -2.0593965   -2.9282802 
H    -1.8107385   -2.5022806    2.1334585 
H    -3.4899304   -3.4298262    3.7225345 
H    -5.5106417   -2.0850329    4.3361858 
H    -5.8346292    0.1912555    3.3520772 
H    -4.1682128    1.1187299    1.7602380 
H    -0.3051086    2.5171607    1.2311675 
H    -0.8532640    4.8847267    0.6392377 
H    -2.8959742    5.3900139   -0.7110429 
H    -4.3823600    3.5299488   -1.4751455 
H    -3.8295659    1.1718066   -0.8983618 
H    -3.2429242   -2.4286696   -0.0028017 
H    -3.6309935   -3.6705975   -2.1114732 
H    -2.5844821   -2.8959641   -4.2435354 
H    -1.5570605    2.1396809   -5.4234373 
H    -3.2840667    2.4702595   -5.0722759 
H    -3.3010583    0.5336659   -6.5259671 
H    -3.6671553   -0.0402623   -4.8852514 
H    -2.0840969   -1.6016544   -5.9930496 
H    -0.9679673   -0.2651467   -6.3823552 
H    -0.7206779    3.7806887   -3.7746612 
H     1.5640076    4.0280394   -2.7675187 
H     2.5512979    2.1717265   -1.4515905 
H     3.8782145   -1.4993186   -2.1940794 
H     6.2902156   -0.9134308   -2.1547587 
H     7.1488771    0.7861991   -0.5341218 
H     5.5742261    1.8857911    1.0681114 
H     3.1536054    1.2929277    1.0434528 
H     0.8657653   -3.1569755    0.2616043 
H     0.6088466   -5.3213792   -0.9649979 
H     0.9014896   -5.3913110   -3.4462096 
H     1.4400497   -3.2949761   -4.7013474 
H     1.6822441   -1.1386048   -3.4859185 
