203
Energy =
C     3.5045706    1.1682890   -0.7961732 
C     3.8428244    0.1639538    0.1395187 
C     3.5499133   -1.2102080   -0.1373758 
H     4.1655479    0.4590045    1.1454454 
Pd    1.6730568   -0.0350613   -0.1660880 
P     0.0927378   -1.7362803   -0.4029480 
P     0.1096816    1.6523319    0.1354760 
H     3.3364433    0.8371634   -1.8335508 
H     3.5990189   -1.5379968   -1.1842732 
C     3.9358629    5.4314232   -0.4935471 
C     3.3651527    4.8426698   -1.6317140 
C     3.2349946    3.4533173   -1.7062135 
C     3.6684293    2.6205374   -0.6480942 
C     4.2332078    3.2299416    0.4954011 
C     4.3632925    4.6200757    0.5695708 
H     4.0501069    6.5185088   -0.4352478 
H     3.0234566    5.4667419   -2.4640434 
H     2.7868052    2.9987535   -2.5932913 
H     4.5829729    2.6156745    1.3297724 
H     4.8015953    5.0756118    1.4629095 
C     3.7762113   -4.4068939    2.7415288 
C     3.7480317   -3.0726198    3.1811732 
C     3.6789755   -2.0267384    2.2564329 
C     3.6516213   -2.2874251    0.8650555 
C     3.6878244   -3.6339803    0.4367436 
C     3.7459745   -4.6796870    1.3662439 
H     3.8243521   -5.2255008    3.4669509 
H     3.7752510   -2.8478411    4.2526025 
H     3.6316521   -0.9952791    2.6210653 
H     3.6622322   -3.8571303   -0.6355187 
H     3.7718497   -5.7153728    1.0131616 
C    -0.2980381    0.8091128   -5.4617266 
C     0.1347032    2.2658723   -5.1591219 
C     1.6810834    2.3320948   -5.1025298 
C    -0.3440646    3.1738514   -6.3115048 
C    -0.4699231    2.6811044   -3.8013247 
C    -0.0090674    2.0832369   -2.6110080 
C    -1.5088029    3.6217720   -3.6898525 
C    -2.1186691    3.9598161   -2.4600313 
C    -3.2493493    5.0061227   -2.4286443 
C    -3.8546669    5.1537636   -1.0166416 
C    -4.3773267    4.5856145   -3.4043903 
C    -2.6726337    6.3769989   -2.8682847 
C    -1.6460919    3.3318658   -1.2984400 
C    -0.5773156    2.4169716   -1.3726521 
C     0.8439281    2.9707276    1.1787381 
C     0.6227401    4.3373715    0.9603110 
C     1.1105262    5.2936590    1.8717774 
C     0.7937703    6.7928729    1.7030221 
C    -0.4182405    7.1241110    2.6140721 
C     0.4289247    7.1358607    0.2406782 
C     1.9992693    7.6688822    2.1214918 
C     1.8326078    4.8304399    2.9880424 
C     2.1197376    3.4675133    3.2070918 
C     1.6137736    2.5420047    2.2798108 
C     2.9182097    3.0252456    4.4499922 
C     3.4789081    1.5947388    4.2943521 
C     4.1125587    3.9775471    4.7030242 
C     1.9608307    3.0560958    5.6702486 
C    -1.3366913    1.0784358    1.1315605 
C    -1.4841213    1.4647553    2.4799469 
C    -2.5432950    0.9587578    3.2412580 
C    -3.4681748    0.0706445    2.6813509 
C    -2.2623589    0.1836301    0.5465186 
C    -3.3351312   -0.3079797    1.3357752 
C    -2.2469681   -0.2322822   -0.8894129 
C    -3.3025691    0.2533400   -1.7030269 
O    -4.1189203    1.1769447   -1.1131866 
C    -5.4959882    1.2769136   -1.5149528 
C    -6.3335140    0.1067463   -0.9958949 
C    -6.3448092   -0.0254954    0.5490504 
C    -5.5655984   -1.2305120    1.0793709 
O    -4.1766891   -1.1838881    0.7086923 
C    -3.4517117   -0.1907794   -3.0270918 
C    -2.5514344   -1.1293973   -3.5419830 
C    -1.4933711   -1.6120556   -2.7632714 
C    -1.3327534   -1.1645073   -1.4364269 
C     0.8304009   -3.1172451   -1.3592311 
C     0.7280527   -4.4643532   -0.9712843 
C     1.3447201   -5.4730798   -1.7333071 
C     1.2125081   -6.9653352   -1.3698147 
C     0.5664848   -7.1637476    0.0181532 
C     2.6052402   -7.6440637   -1.3629554 
C     0.3159988   -7.6460914   -2.4377124 
C     2.0731343   -5.0894909   -2.8805726 
C     2.2077801   -3.7480255   -3.2852013 
C     1.5725414   -2.7682289   -2.5003651 
C     3.0015187   -3.3172137   -4.5342603 
C     3.7240848   -4.5044937   -5.2035539 
C     4.0638831   -2.2621906   -4.1302302 
C     2.0177224   -2.6915478   -5.5568157 
C    -0.6631338   -2.4468533    1.0965308 
C    -1.7417014   -3.3429985    0.9785895 
C    -2.3065484   -3.9229884    2.1262145 
C    -3.4433029   -4.9607041    2.0530916 
C    -3.9783154   -5.1216653    0.6144951 
C    -4.6159470   -4.5253536    2.9669554 
C    -2.8963003   -6.3280556    2.5393675 
C    -1.7804753   -3.5404499    3.3765763 
C    -0.7307052   -2.6134979    3.5261943 
C    -0.1606066   -2.0813454    2.3560614 
C    -0.2309442   -2.2397475    4.9346922 
C     0.7493742   -1.0495513    4.8900278 
C     0.4954050   -3.4682479    5.5412269 
C    -1.4278119   -1.8448550    5.8354660 
H     0.1456216    0.4637121   -6.4128986 
H    -1.3958396    0.7373639   -5.5404933 
H     0.0211140    0.1215965   -4.6598868 
H     2.1085042    2.0557243   -6.0823636 
H     2.0959797    1.6311372   -4.3567126 
H     2.0269182    3.3504165   -4.8530851 
H    -1.4363338    3.1096585   -6.4582366 
H     0.1335342    2.8588919   -7.2552779 
H    -0.0779354    4.2309409   -6.1342285 
H     0.7885565    1.3322596   -2.6347021 
H    -1.8747337    4.1102946   -4.5961497 
H    -4.6820067    5.8837458   -1.0400473 
H    -3.1099551    5.5206439   -0.2879337 
H    -4.2542543    4.1933834   -0.6466037 
H    -5.2001208    5.3218375   -3.3763019 
H    -4.0193064    4.5256553   -4.4463894 
H    -4.7848081    3.5989315   -3.1273663 
H    -1.8642088    6.6983718   -2.1885305 
H    -2.2592879    6.3333706   -3.8908629 
H    -3.4636058    7.1480715   -2.8544307 
H    -2.1043730    3.5323261   -0.3275059 
H     0.0600606    4.6529038    0.0800915 
H    -0.1884274    6.9089035    3.6724163 
H    -0.6851500    8.1930267    2.5289114 
H    -1.2988680    6.5220359    2.3275357 
H     0.2775319    8.2243077    0.1397345 
H     1.2295736    6.8311987   -0.4554677 
H    -0.5073037    6.6453790   -0.0775059 
H     2.2415718    7.5609326    3.1923814 
H     2.8993285    7.4098332    1.5384636 
H     1.7681109    8.7339178    1.9461462 
H     2.1975498    5.5625932    3.7130366 
H     1.7983997    1.4694707    2.4055452 
H     4.1430706    1.5172978    3.4148401 
H     4.0708030    1.3254242    5.1856450 
H     2.6790756    0.8440103    4.1934032 
H     4.7871454    4.0059940    3.8290113 
H     4.6947378    3.6283726    5.5735320 
H     3.7875985    5.0091141    4.9187006 
H     1.1141934    2.3630915    5.5185037 
H     2.4941079    2.7555695    6.5902220 
H     1.5499441    4.0689615    5.8251049 
H    -0.7817658    2.1688855    2.9320521 
H    -2.6527536    1.2651953    4.2867173 
H    -4.2843264   -0.3250680    3.2909052 
H    -5.5820923    1.3721850   -2.6130614 
H    -5.8342192    2.2284254   -1.0734070 
H    -5.9643712   -0.8276760   -1.4589173 
H    -7.3618235    0.2541807   -1.3729840 
H    -5.9403543    0.8915858    1.0172169 
H    -7.3829644   -0.1280818    0.9139156 
H    -5.9321715   -2.1661911    0.6268209 
H    -5.6806051   -1.3245128    2.1746725 
H    -4.2649396    0.1865582   -3.6521403 
H    -2.6736548   -1.4880398   -4.5691019 
H    -0.8063633   -2.3499900   -3.1843746 
H     0.1752184   -4.7157225   -0.0649514 
H     1.1462067   -6.6626962    0.8135080 
H     0.5202747   -8.2402323    0.2566011 
H    -0.4662190   -6.7745952    0.0476451 
H     3.0927260   -7.6016219   -2.3517000 
H     3.2776014   -7.1628588   -0.6319473 
H     2.5054886   -8.7089540   -1.0887463 
H     0.1977024   -8.7209136   -2.2112002 
H     0.7543830   -7.5563496   -3.4470042 
H    -0.6864962   -7.1835534   -2.4591250 
H     2.5532000   -5.8701513   -3.4748274 
H     1.6555571   -1.7093138   -2.7749110 
H     4.4393604   -4.9868337   -4.5141300 
H     3.0115293   -5.2695428   -5.5581041 
H     4.2911440   -4.1480569   -6.0806282 
H     4.6593986   -1.9621671   -5.0104539 
H     4.7540317   -2.6673713   -3.3693739 
H     3.5985944   -1.3476828   -3.7204042 
H     1.5014819   -1.8112424   -5.1359228 
H     1.2492320   -3.4241566   -5.8595597 
H     2.5599235   -2.3650170   -6.4623392 
H    -2.1358915   -3.5701515   -0.0146265 
H    -3.2024922   -5.5090877   -0.0695907 
H    -4.3439657   -4.1609162    0.2115966 
H    -4.8158386   -5.8403866    0.6053677 
H    -4.3114161   -4.4578185    4.0252806 
H    -5.0044075   -3.5399200    2.6613420 
H    -5.4399546   -5.2580302    2.9041715 
H    -2.5319981   -6.2692143    3.5797824 
H    -2.0574092   -6.6633006    1.9051164 
H    -3.6897587   -7.0957700    2.4990757 
H    -2.2139683   -3.9829755    4.2792141 
H     0.6671892   -1.3686786    2.4020472 
H     1.0590487   -0.7767962    5.9138661 
H     0.2821973   -0.1627110    4.4262418 
H     1.6608305   -1.2992054    4.3223896 
H    -0.1869486   -4.3315151    5.6311159 
H     0.8796306   -3.2308513    6.5497785 
H     1.3443978   -3.7712896    4.9043769 
H    -1.0672159   -1.5519985    6.8375059 
H    -1.9784837   -0.9932158    5.4004684 
H    -2.1379786   -2.6783631    5.9704081 
