203
Energy =
C     3.4553161    1.3581572   -0.8267979 
C     3.8663844    0.1984851   -0.1324389 
C     3.5501880   -1.1051604   -0.6214841 
H     4.2896268    0.3054025    0.8747158 
Pd    1.6695722    0.0420223   -0.2730645 
P     0.1012980   -1.6639034   -0.4802803 
P     0.0487170    1.6591613    0.1872643 
H     3.1713984    1.2339047   -1.8840482 
H     3.4849096   -1.2304518   -1.7109502 
C     4.2872708    5.4386260    0.2374994 
C     3.3095447    5.1347602   -0.7222650 
C     3.0441510    3.8036984   -1.0567601 
C     3.7381792    2.7455901   -0.4254086 
C     4.7171117    3.0658276    0.5424953 
C     4.9927183    4.3993483    0.8628542 
H     4.5074042    6.4804061    0.4913081 
H     2.7511632    5.9388765   -1.2129296 
H     2.2764494    3.5733737   -1.8027458 
H     5.2957951    2.2695837    1.0213137 
H     5.7737239    4.6315879    1.5939170 
C     4.4642467   -4.7292767    1.5187646 
C     4.2034508   -3.5459366    2.2300636 
C     3.8909215   -2.3665596    1.5470798 
C     3.8404672   -2.3399294    0.1338190 
C     4.0942016   -3.5394643   -0.5661401 
C     4.4050133   -4.7202302    0.1178118 
H     4.7074790   -5.6516900    2.0562478 
H     4.2406689   -3.5456339    3.3239730 
H     3.6703057   -1.4561314    2.1160557 
H     4.0466655   -3.5419667   -1.6587182 
H     4.6008635   -5.6361493   -0.4495069 
C     0.3018130    0.8968100   -5.2870915 
C     0.3323109    2.4283622   -5.0480110 
C     1.8050073    2.8964310   -4.9162688 
C    -0.3000898    3.1283935   -6.2680766 
C    -0.4125980    2.7544579   -3.7386291 
C     0.0186023    2.1602934   -2.5374820 
C    -1.5063001    3.6338337   -3.6655818 
C    -2.1898271    3.9149600   -2.4590065 
C    -3.3695149    4.9060030   -2.4609386 
C    -4.4187497    4.4697471   -3.5142374 
C    -2.8303287    6.3155494   -2.8191694 
C    -4.0604979    4.9785950   -1.0828705 
C    -1.7427798    3.2893397   -1.2856596 
C    -0.6240982    2.4339567   -1.3226888 
C     0.7313898    2.9705800    1.2678501 
C     0.3439446    4.3164870    1.1833901 
C     0.8075114    5.2490024    2.1285055 
C     0.3858029    6.7314343    2.0915095 
C    -0.4395155    7.0451447    3.3664888 
C    -0.4789903    7.0553931    0.8543596 
C     1.6441382    7.6347791    2.0531660 
C     1.6579969    4.7826577    3.1514936 
C     2.0801461    3.4418154    3.2515609 
C     1.6108605    2.5432380    2.2791224 
C     2.9675731    2.9819492    4.4251073 
C     2.0925763    2.9611560    5.7061854 
C     3.5419311    1.5665863    4.1915703 
C     4.1536463    3.9559238    4.6273398 
C    -1.4170677    1.0661565    1.1409642 
C    -1.5981337    1.4640898    2.4813386 
C    -2.6875843    0.9802295    3.2132774 
C    -3.5983699    0.0886863    2.6370401 
C    -2.3351597    0.1778414    0.5341133 
C    -3.4247408   -0.3104310    1.3021334 
C    -2.3011611   -0.2144676   -0.9077310 
C    -3.3604224    0.2748114   -1.7185366 
O    -4.2107135    1.1555011   -1.1098873 
C    -5.5841357    1.2352275   -1.5302616 
C    -6.4086735    0.0439200   -1.0407373 
C    -6.4439823   -0.1077783    0.5016320 
C    -5.6313726   -1.2909456    1.0294238 
O    -4.2428822   -1.2012243    0.6651251 
C    -3.4777856   -0.1121168   -3.0627126 
C    -2.5486060   -1.0070811   -3.6021503 
C    -1.4961504   -1.5011813   -2.8247061 
C    -1.3573909   -1.1031569   -1.4787986 
C     0.7680214   -3.1001384   -1.4069335 
C     0.6745071   -4.4142718   -0.9286594 
C     1.1999941   -5.4895226   -1.6711244 
C     1.0184639   -6.9283244   -1.1473348 
C     1.3427880   -7.0057334    0.3657600 
C     1.9245232   -7.9332453   -1.8900847 
C    -0.4653163   -7.3278279   -1.3677155 
C     1.8170877   -5.2035453   -2.9048787 
C     1.9344496   -3.8909965   -3.4096808 
C     1.4145315   -2.8440114   -2.6306339 
C     2.5704570   -3.5722977   -4.7780363 
C     3.2717225   -4.8010178   -5.3937746 
C     3.6172458   -2.4387930   -4.6295487 
C     1.4436449   -3.1049947   -5.7372874 
C    -0.5794002   -2.3269954    1.0771069 
C    -1.6755794   -3.2121543    1.0359932 
C    -2.1523705   -3.7980212    2.2159444 
C    -3.2998309   -4.8256290    2.2174201 
C    -3.9347798   -4.9773187    0.8189810 
C    -4.4009512   -4.3809623    3.2122332 
C    -2.7299243   -6.2004812    2.6545358 
C    -1.5222599   -3.4423355    3.4310555 
C    -0.4486297   -2.5389139    3.5058320 
C     0.0253569   -1.9905266    2.2953234 
C     0.2120893   -2.1379535    4.8406669 
C    -0.3966736   -2.8877368    6.0435923 
C     0.0201906   -0.6167445    5.0629346 
C     1.7260093   -2.4586706    4.7798463 
H     0.8493155    0.6425862   -6.2121687 
H    -0.7353846    0.5340053   -5.3827684 
H     0.7709977    0.3441705   -4.4542927 
H     2.3596190    2.6881189   -5.8484740 
H     2.3252241    2.3738111   -4.0939441 
H     1.8588883    3.9808148   -4.7163461 
H    -1.3513698    2.8224545   -6.4123071 
H     0.2561566    2.8584924   -7.1822518 
H    -0.2671761    4.2278374   -6.1711825 
H     0.8577481    1.4553592   -2.5365389 
H    -1.8535744    4.1203246   -4.5803934 
H    -5.2776841    5.1639906   -3.5075720 
H    -4.7910478    3.4546457   -3.2958188 
H    -4.0015161    4.4664201   -4.5356493 
H    -3.6547070    7.0509405   -2.8282582 
H    -2.0800529    6.6458973   -2.0792143 
H    -2.3547012    6.3259283   -3.8153014 
H    -4.4221159    3.9871406   -0.7606365 
H    -3.3795379    5.3653014   -0.3044161 
H    -4.9251908    5.6623927   -1.1345966 
H    -2.2632030    3.4407443   -0.3377022 
H    -0.3175581    4.6315213    0.3749276 
H     0.1495929    6.8709372    4.2834643 
H    -0.7595882    8.1024727    3.3654774 
H    -1.3412925    6.4095811    3.4149134 
H    -0.7397633    8.1276249    0.8533583 
H     0.0579454    6.8383415   -0.0863792 
H    -1.4241697    6.4842831    0.8525638 
H     2.2961601    7.4704311    2.9281670 
H     2.2379393    7.4372013    1.1448564 
H     1.3483902    8.6989076    2.0495288 
H     2.0076525    5.4970351    3.9036357 
H     1.9109818    1.4903060    2.3004137 
H     1.2399553    2.2701305    5.5863843 
H     2.6885514    2.6305127    6.5759753 
H     1.6896638    3.9647147    5.9281838 
H     2.7506477    0.7984965    4.1479180 
H     4.2147168    1.2956387    5.0231468 
H     4.1249218    1.5212533    3.2543657 
H     3.8148488    4.9766266    4.8728496 
H     4.7887878    3.6094031    5.4613424 
H     4.7740016    4.0117580    3.7174012 
H    -0.8968812    2.1587375    2.9493642 
H    -2.8290004    1.3011936    4.2504070 
H    -4.4362052   -0.2925736    3.2260080 
H    -5.6572464    1.3447199   -2.6276939 
H    -5.9471225    2.1738994   -1.0811862 
H    -6.0166970   -0.8781556   -1.5095956 
H    -7.4329221    0.1801823   -1.4328725 
H    -6.0830480    0.8181451    0.9876556 
H    -7.4840166   -0.2536125    0.8457920 
H    -5.9678269   -2.2344861    0.5698084 
H    -5.7485212   -1.3966075    2.1234171 
H    -4.2882110    0.2763260   -3.6843258 
H    -2.6468773   -1.3271170   -4.6446570 
H    -0.7961286   -2.2131680   -3.2660593 
H     0.1908209   -4.6015282    0.0325069 
H     2.3758825   -6.6786267    0.5689580 
H     1.2287903   -8.0455888    0.7191282 
H     0.6655090   -6.3773719    0.9693867 
H     1.6732886   -8.0050060   -2.9625643 
H     2.9904011   -7.6569225   -1.8008720 
H     1.7974760   -8.9400569   -1.4565109 
H    -0.6465099   -8.3547626   -1.0023386 
H    -0.7292385   -7.2886598   -2.4390177 
H    -1.1428860   -6.6453267   -0.8245612 
H     2.2219100   -6.0284824   -3.4920644 
H     1.5028006   -1.8085744   -2.9786262 
H     4.0660746   -5.1887841   -4.7316083 
H     2.5603456   -5.6194499   -5.5995773 
H     3.7389920   -4.5209960   -6.3535214 
H     4.0809258   -2.2199446   -5.6073842 
H     4.4203906   -2.7271335   -3.9286241 
H     3.1625788   -1.5001740   -4.2659678 
H     0.9388759   -2.2008325   -5.3533750 
H     0.6822970   -3.8950347   -5.8598983 
H     1.8585188   -2.8660256   -6.7330376 
H    -2.1440738   -3.4289224    0.0734337 
H    -3.2132713   -5.3756448    0.0840508 
H    -4.3112375   -4.0112418    0.4413178 
H    -4.7809782   -5.6841099    0.8679469 
H    -4.0227855   -4.3206653    4.2470287 
H    -4.7961693   -3.3885972    2.9365759 
H    -5.2369735   -5.1026263    3.2044316 
H    -2.2922103   -6.1541107    3.6668984 
H    -1.9411391   -6.5355819    1.9578097 
H    -3.5295424   -6.9627467    2.6637494 
H    -1.8936775   -3.8941678    4.3538363 
H     0.8658566   -1.2873279    2.2885660 
H     0.1068378   -2.5682638    6.9723500 
H    -0.2673860   -3.9805728    5.9518395 
H    -1.4735826   -2.6720015    6.1583836 
H     0.4230887   -0.0272522    4.2215271 
H     0.5369051   -0.2964575    5.9854238 
H    -1.0498811   -0.3685804    5.1576579 
H     2.2113786   -2.1946953    5.7364290 
H     1.8940275   -3.5321971    4.5870486 
H     2.2270007   -1.8891161    3.9799000 
