203
Energy =
C     3.5346508    1.2197475   -0.7084412 
C     3.8659056    0.0802018    0.0569142 
C     3.5115707   -1.2353868   -0.3728241 
H     4.2420319    0.2281224    1.0777306 
Pd    1.6724024   -0.0006608   -0.1895596 
P     0.0728489   -1.6749786   -0.4707954 
P     0.0779106    1.6600273    0.1870190 
H     3.2815683    1.0635835   -1.7697395 
H     3.5057151   -1.4329330   -1.4530325 
C     4.4531426    5.2908393    0.3227944 
C     3.4462084    5.0008875   -0.6110053 
C     3.1585722    3.6748231   -0.9461755 
C     3.8593543    2.6077652   -0.3393898 
C     4.8796336    2.9134014    0.5894292 
C     5.1756553    4.2423379    0.9122154 
H     4.6814760    6.3294127    0.5826665 
H     2.8779960    5.8119714   -1.0779469 
H     2.3621404    3.4562447   -1.6651581 
H     5.4728375    2.1075113    1.0331088 
H     5.9841467    4.4617056    1.6171582 
C     3.9955371   -4.7382605    2.0869114 
C     3.8128761   -3.4812814    2.6887618 
C     3.6494712   -2.3397892    1.8990728 
C     3.6681613   -2.4252945    0.4864860 
C     3.8419523   -3.6957427   -0.1041800 
C     4.0100059   -4.8378664    0.6882991 
H     4.1242879   -5.6319561    2.7062007 
H     3.7978956   -3.3924974    3.7801644 
H     3.4904336   -1.3696505    2.3830781 
H     3.8429861   -3.7846792   -1.1956853 
H     4.1535885   -5.8108110    0.2077047 
C     1.9242399    2.9061794   -4.8702797 
C     0.4609513    2.4208127   -5.0403627 
C    -0.1491362    3.1160746   -6.2744203 
C     0.4546879    0.8899817   -5.2828437 
C    -0.3196084    2.7342657   -3.7491468 
C     0.0873606    2.1402265   -2.5390913 
C    -1.4219885    3.6038556   -3.7010732 
C    -2.1353681    3.8791636   -2.5104944 
C    -3.3255432    4.8569735   -2.5429168 
C    -4.3588437    4.3820191   -3.5954453 
C    -2.8029374    6.2655322   -2.9279714 
C    -4.0287027    4.9514078   -1.1725659 
C    -1.7100580    3.2573490   -1.3272627 
C    -0.5857735    2.4080805   -1.3396905 
C     0.7481563    3.0105087    1.2290744 
C     1.6361759    2.6310164    2.2513150 
C     2.1147016    3.5746038    3.1767954 
C     2.9954807    3.1580129    4.3713607 
C     4.0786624    4.2238487    4.6625921 
C     3.7044141    1.8087065    4.1152086 
C     2.0708439    3.0113518    5.6091179 
C     1.6963627    4.9097976    3.0147539 
C     0.8367069    5.3280441    1.9784497 
C     0.3611113    4.3526433    1.0851650 
C     0.4265158    6.8102325    1.8709383 
C     1.6922999    7.6990786    1.7727035 
C    -0.4503599    7.0783796    0.6292810 
C    -0.3805880    7.1966060    3.1376114 
C    -1.3755897    1.0589781    1.1535573 
C    -1.5097814    1.4079444    2.5133239 
C    -2.5697270    0.8918362    3.2661330 
C    -3.5023961    0.0233762    2.6883566 
C    -2.3102702    0.1860896    0.5489522 
C    -3.3776224   -0.3242215    1.3336231 
C    -2.2963974   -0.1867951   -0.8987370 
C    -3.3526312    0.3183979   -1.7014155 
O    -4.2036873    1.1900082   -1.0797606 
C    -5.5822389    1.2589742   -1.4875816 
C    -6.3909611    0.0629581   -0.9846187 
C    -6.4072054   -0.0806446    0.5588295 
C    -5.6005059   -1.2707851    1.0789916 
O    -4.2167765   -1.1927757    0.6937726 
C    -3.4623432   -0.0397012   -3.0545976 
C    -2.5297023   -0.9213541   -3.6103003 
C    -1.4847475   -1.4390094   -2.8374053 
C    -1.3572289   -1.0723275   -1.4821448 
C     0.7546160   -3.0886561   -1.4223096 
C     0.6412601   -4.4179984   -0.9863973 
C     1.1938595   -5.4701448   -1.7402777 
C     0.9979315   -6.9349818   -1.3006421 
C     2.1792491   -7.8254346   -1.7517976 
C    -0.3094008   -7.4502426   -1.9605259 
C     0.8629107   -7.0501746    0.2363217 
C     1.8684381   -5.1458380   -2.9352657 
C     2.0172125   -3.8199158   -3.3894093 
C     1.4548279   -2.7963093   -2.6064767 
C     2.7417671   -3.4585090   -4.7011225 
C     3.4695424   -4.6712518   -5.3177469 
C     3.7891091   -2.3473718   -4.4329554 
C     1.6870093   -2.9402000   -5.7137675 
C    -0.6517446   -2.3684348    1.0525653 
C    -0.0930905   -2.0134608    2.2909126 
C    -0.6043445   -2.5563863    3.4823011 
C    -0.0320698   -2.1951844    4.8664866 
C     0.9816144   -1.0348216    4.7780809 
C     0.6820385   -3.4428670    5.4472795 
C    -1.1784533   -1.7635734    5.8150051 
C    -1.6610147   -3.4814428    3.3745496 
C    -2.2453633   -3.8524700    2.1461601 
C    -1.7343045   -3.2640430    0.9775261 
C    -3.3853320   -4.8891033    2.1167667 
C    -3.9733509   -5.0520980    0.6992174 
C    -4.5209150   -4.4486308    3.0739996 
C    -2.8248338   -6.2578285    2.5827540 
H     2.5044083    2.7075660   -5.7889810 
H     2.4299866    2.3880020   -4.0361955 
H     1.9593796    3.9905740   -4.6662360 
H     0.4326062    2.8542000   -7.1749674 
H    -0.1310139    4.2156380   -6.1750499 
H    -1.1930037    2.7986146   -6.4451065 
H     0.9112152    0.3428623   -4.4395746 
H     1.0275779    0.6436534   -6.1944201 
H    -0.5752734    0.5140558   -5.4039458 
H     0.9329652    1.4432842   -2.5190503 
H    -1.7517579    4.0882737   -4.6234496 
H    -5.2273868    5.0640530   -3.6138083 
H    -4.7188108    3.3671906   -3.3560920 
H    -3.9305546    4.3594652   -4.6120561 
H    -3.6374636    6.9887608   -2.9580747 
H    -2.0625507    6.6221658   -2.1903999 
H    -2.3210470    6.2624859   -3.9210777 
H    -4.3835082    3.9636475   -0.8327491 
H    -3.3571210    5.3602894   -0.3972866 
H    -4.8992185    5.6258319   -1.2454635 
H    -2.2510032    3.4070482   -0.3905867 
H     1.9369326    1.5802448    2.3213197 
H     3.6412820    5.1887548    4.9700786 
H     4.7288952    3.8833390    5.4871301 
H     4.7065929    4.3991429    3.7728889 
H     4.3684163    1.5687780    4.9632286 
H     2.9884281    0.9754340    4.0159076 
H     4.3192646    1.8525373    3.1996921 
H     1.5593898    3.9633675    5.8347259 
H     1.2984544    2.2419992    5.4319145 
H     2.6573475    2.7148408    6.4975388 
H     2.0556849    5.6592812    3.7259830 
H    -0.3045127    4.6315771    0.2669656 
H     2.2746368    7.4518062    0.8689976 
H     1.4054848    8.7642540    1.7184702 
H     2.3529569    7.5733003    2.6475485 
H     0.0733134    6.8104715   -0.3057943 
H    -0.7041366    8.1510072    0.5772309 
H    -1.3989870    6.5145209    0.6673301 
H     0.2181253    7.0648774    4.0554342 
H    -0.6921468    8.2552395    3.0857992 
H    -1.2867252    6.5722586    3.2293287 
H    -0.7962133    2.0923226    2.9788010 
H    -2.6735764    1.1730732    4.3190721 
H    -4.3167428   -0.3835773    3.2928090 
H    -5.6669839    1.3622549   -2.5846226 
H    -5.9479645    2.1971009   -1.0395634 
H    -5.9932622   -0.8568286   -1.4531154 
H    -7.4204122    0.1863734   -1.3671812 
H    -6.0256209    0.8417985    1.0354810 
H    -7.4438330   -0.2107423    0.9191700 
H    -5.9523436   -2.2124876    0.6272169 
H    -5.7030710   -1.3703457    2.1747932 
H    -4.2682860    0.3642406   -3.6722404 
H    -2.6209495   -1.2132304   -4.6616782 
H    -0.7821599   -2.1426465   -3.2890248 
H     0.1270109   -4.6296296   -0.0477877 
H     2.2548825   -7.8957109   -2.8503362 
H     2.0402796   -8.8516733   -1.3702790 
H     3.1401080   -7.4429472   -1.3647264 
H    -1.1746583   -6.8431990   -1.6392332 
H    -0.2446366   -7.3955548   -3.0613888 
H    -0.4979060   -8.5011032   -1.6756110 
H     0.7943326   -8.1132359    0.5249915 
H    -0.0471782   -6.5518671    0.6111139 
H     1.7304186   -6.6043367    0.7521523 
H     2.2972986   -5.9546762   -3.5286476 
H     1.5598662   -1.7504477   -2.9175296 
H     4.2187202   -5.0914468   -4.6235203 
H     2.7652362   -5.4738492   -5.5973082 
H     3.9968713   -4.3608378   -6.2361309 
H     4.3312988   -2.1024321   -5.3631449 
H     4.5289537   -2.6742608   -3.6808119 
H     3.3197607   -1.4146822   -4.0724304 
H     1.1579076   -2.0530452   -5.3245196 
H     0.9348896   -3.7197089   -5.9269555 
H     2.1718429   -2.6571634   -6.6653100 
H     0.7342697   -1.2989533    2.3031905 
H     0.5251220   -0.1348366    4.3292613 
H     1.8647469   -1.3120571    4.1777632 
H     1.3381719   -0.7680096    5.7879066 
H    -0.0207804   -4.2848185    5.5729362 
H     1.4919861   -3.7757023    4.7753957 
H     1.1180729   -3.2128718    6.4361641 
H    -1.9118164   -2.5729986    5.9713806 
H    -1.7150271   -0.8912198    5.4048865 
H    -0.7703321   -1.4893714    6.8040063 
H    -2.0513466   -3.9327282    4.2926308 
H    -2.1713680   -3.4870755    0.0016512 
H    -4.8130981   -5.7678167    0.7230539 
H    -3.2239840   -5.4446090   -0.0111656 
H    -4.3493628   -4.0914150    0.3065953 
H    -4.1755358   -4.3812257    4.1197466 
H    -5.3500017   -5.1776482    3.0433887 
H    -4.9161361   -3.4615674    2.7825871 
H    -3.6223935   -7.0221666    2.5758429 
H    -2.0154496   -6.5976617    1.9134725 
H    -2.4168224   -6.2005614    3.6068600 
