203
Energy =
C     2.2685191    1.2805508    2.6904111 
C     1.0478407    1.8258355    3.2003018 
C     0.0146356    0.9662788    3.6393071 
H     0.8534186    2.9012158    3.1024462 
Pd    0.5585228    0.5752181    1.4606708 
P    -1.5814644    0.2297130    0.5825063 
P     1.6558851   -0.4643586   -0.3025343 
H     2.6042066    0.3252511    3.1173674 
H     0.3098153   -0.0654120    3.8872733 
C     5.4355867    3.6279448    0.9531755 
C     5.7086616    2.3974951    1.5678508 
C     4.6695115    1.6416152    2.1221365 
C     3.3339757    2.0977546    2.0776355 
C     3.0709914    3.3339251    1.4416112 
C     4.1104981    4.0914992    0.8929043 
H     6.2466820    4.2224752    0.5201282 
H     6.7356170    2.0208628    1.6193628 
H     4.8913222    0.6820113    2.5969025 
H     2.0407565    3.6983786    1.3636580 
H     3.8875925    5.0479817    0.4093505 
C    -3.8622518    1.9754474    5.1802368 
C    -3.0135826    2.9984061    4.7280853 
C    -1.7505611    2.6909607    4.2153672 
C    -1.3096582    1.3500188    4.1428902 
C    -2.1847317    0.3291903    4.5837737 
C    -3.4482091    0.6374074    5.0965068 
H    -4.8416636    2.2231304    5.6014875 
H    -3.3376894    4.0424691    4.7796083 
H    -1.0985042    3.5013190    3.8777050 
H    -1.8647842   -0.7159503    4.5183814 
H    -4.1088455   -0.1667140    5.4367034 
C    -6.8958335    2.1157835    0.3061793 
C    -6.3105764    2.6118714    1.6558264 
C    -6.9706975    3.9598624    2.0137781 
C    -6.6543523    1.5924795    2.7689632 
C    -4.7829204    2.7363784    1.4876873 
C    -4.0075884    1.5713058    1.3005160 
C    -4.1266235    3.9770696    1.4302737 
C    -2.7385780    4.1025870    1.1968197 
C    -2.0918222    5.5011480    1.1503260 
C    -2.4488342    6.2929541    2.4337749 
C    -2.6353192    6.2548454   -0.0915724 
C    -0.5539772    5.4258246    1.0476060 
C    -2.0059351    2.9253832    0.9909466 
C    -2.6379320    1.6628302    1.0303274 
C    -2.3537564   -1.3265070    1.1507808 
C    -3.6205460   -1.7516923    0.7244172 
C    -4.1950392   -2.9261134    1.2559597 
C    -5.6212136   -3.3341170    0.8343536 
C    -6.5923331   -2.1619328    1.1271843 
C    -6.1234588   -4.5785681    1.5958574 
C    -5.6313132   -3.6493994   -0.6817454 
C    -3.4294410   -3.6779629    2.1646728 
C    -2.1231445   -3.3108670    2.5590530 
C    -1.6067913   -2.1137231    2.0487849 
C    -1.3252223   -4.1996099    3.5316749 
C    -1.2512724   -5.6428554    2.9716088 
C     0.1171515   -3.6840894    3.7249207 
C    -2.0407017   -4.2099497    4.9068702 
C    -1.6867933    0.1976134   -1.2587890 
C    -2.3336053    1.2342061   -1.9617203 
C    -2.3691192    1.2117958   -3.3604712 
C    -1.7592689    0.1760089   -4.0763600 
C    -1.0708684   -0.8628023   -1.9626312 
C    -1.1154288   -0.8601574   -3.3807284 
C    -0.4554780   -2.0610931   -1.3127707 
C    -1.1508636   -3.2883143   -1.4785825 
O    -2.3627977   -3.1962451   -2.1019544 
C    -2.8475738   -4.2995712   -2.8872342 
C    -2.0953283   -4.4395213   -4.2117449 
C    -2.2176672   -3.1998868   -5.1353264 
C    -0.9299315   -2.3852129   -5.2639822 
O    -0.4671824   -1.8967829   -3.9925902 
C    -0.6124884   -4.4923299   -0.9966515 
C     0.6348754   -4.4815006   -0.3635233 
C     1.3397410   -3.2854753   -0.1901003 
C     0.7981725   -2.0683986   -0.6533039 
C     1.7475776    0.4228060   -1.8934563 
C     2.1862049   -0.2610158   -3.0456596 
C     2.3660779    0.4316773   -4.2498500 
C     2.9096499   -0.2513210   -5.5188622 
C     4.2910731    0.3660618   -5.8602651 
C     1.9315218   -0.0166744   -6.6970319 
C     3.0852648   -1.7717031   -5.3212171 
C     2.0613415    1.8126205   -4.2690529 
C     1.5959954    2.5133239   -3.1439314 
C     1.4527090    1.7910923   -1.9401053 
C     1.2463991    4.0144125   -3.1820822 
C    -0.2647735    4.1850923   -2.8846842 
C     1.5493384    4.6530507   -4.5529861 
C     2.0729995    4.7569458   -2.1033012 
C     3.3858212   -0.9113883    0.1201115 
C     4.4596979   -0.5656608   -0.7078062 
C     5.7854200   -0.8873256   -0.3473894 
C     6.9333449   -0.5370378   -1.3145188 
C     8.3156134   -0.6612616   -0.6396094 
C     6.7754861    0.9117640   -1.8420114 
C     6.8651221   -1.5229744   -2.5113089 
C     5.9881464   -1.5679127    0.8637663 
C     4.9267125   -1.9226411    1.7300013 
C     3.6252635   -1.5692852    1.3469174 
C     5.2264087   -2.6663480    3.0466349 
C     3.9447747   -2.9413917    3.8609199 
C     6.1855487   -1.8146581    3.9172542 
C     5.8959195   -4.0249595    2.7145883 
H    -7.9937843    2.0155692    0.3769670 
H    -6.4805624    1.1317951    0.0265698 
H    -6.6632742    2.8258112   -0.5066895 
H    -8.0555928    3.8155048    2.1554799 
H    -6.8404743    4.7097034    1.2138930 
H    -6.5602955    4.3749179    2.9515369 
H    -6.2186372    0.5989094    2.5727134 
H    -7.7493830    1.4695023    2.8413005 
H    -6.2793061    1.9389583    3.7453565 
H    -4.4833169    0.5891332    1.3498084 
H    -4.7114174    4.8889654    1.5715032 
H    -1.9982642    7.3003174    2.3957006 
H    -2.0644602    5.7811430    3.3333658 
H    -3.5381744    6.4192219    2.5524481 
H    -2.1887016    7.2632969   -0.1562169 
H    -2.3914510    5.7065931   -1.0180231 
H    -3.7318109    6.3711686   -0.0428822 
H    -0.1180918    4.8901867    1.9100850 
H    -0.2242650    4.9230431    0.1233406 
H    -0.1288115    6.4439188    1.0390838 
H    -0.9286419    2.9629765    0.7953618 
H    -4.1581248   -1.1698457   -0.0310140 
H    -6.3278059   -1.2567839    0.5542580 
H    -7.6241329   -2.4412164    0.8495169 
H    -6.5821378   -1.9029055    2.2003119 
H    -7.1503940   -4.8208585    1.2724636 
H    -5.4949712   -5.4641167    1.3951662 
H    -6.1471398   -4.4079659    2.6866635 
H    -5.2607284   -2.7978297   -1.2776013 
H    -4.9878274   -4.5196226   -0.8949665 
H    -6.6566372   -3.8868578   -1.0173377 
H    -3.8554189   -4.5947958    2.5792792 
H    -0.6029561   -1.7731093    2.3181714 
H    -0.7629566   -5.6494902    1.9820827 
H    -0.6689540   -6.2874582    3.6537986 
H    -2.2532351   -6.0918725    2.8622806 
H     0.6586183   -3.6363726    2.7637047 
H     0.6712057   -4.3629726    4.3955974 
H     0.1389356   -2.6797632    4.1853471 
H    -3.0694118   -4.6014126    4.8242923 
H    -1.4910487   -4.8472091    5.6224960 
H    -2.0979838   -3.1901173    5.3275214 
H    -2.8156947    2.0507905   -1.4189577 
H    -2.8795544    2.0145017   -3.9025751 
H    -1.7843251    0.1783933   -5.1689417 
H    -3.9059893   -4.0547834   -3.0673012 
H    -2.8188250   -5.2404115   -2.3068063 
H    -2.5020027   -5.3327901   -4.7197636 
H    -1.0322628   -4.6595889   -3.9996100 
H    -2.5028344   -3.5124403   -6.1563337 
H    -3.0252810   -2.5335938   -4.7781249 
H    -1.0555940   -1.5569588   -5.9850248 
H    -0.1006474   -3.0143482   -5.6263145 
H    -1.1568212   -5.4322083   -1.1170297 
H     1.0672960   -5.4210215   -0.0039740 
H     2.3225851   -3.3062389    0.2855934 
H     2.3830732   -1.3334242   -2.9805303 
H     4.2152953    1.4511468   -6.0483473 
H     4.7098984   -0.1075944   -6.7661261 
H     5.0031522    0.2137188   -5.0299155 
H     0.9338193   -0.4229763   -6.4598159 
H     1.8154567    1.0558519   -6.9287540 
H     2.3034031   -0.5171877   -7.6086169 
H     3.4355627   -2.2324207   -6.2609162 
H     2.1346926   -2.2524924   -5.0334871 
H     3.8345313   -1.9978253   -4.5421458 
H     2.1971780    2.3559319   -5.2072248 
H     1.1066056    2.2863781   -1.0259694 
H    -0.8724144    3.7018207   -3.6678831 
H    -0.5461753    3.7282168   -1.9204672 
H    -0.5290887    5.2571745   -2.8483418 
H     1.2903428    5.7256198   -4.5269260 
H     0.9582262    4.1882223   -5.3616596 
H     2.6196423    4.5732669   -4.8126553 
H     3.1551784    4.6358723   -2.2833357 
H     1.8576205    4.3732987   -1.0931201 
H     1.8350227    5.8356183   -2.1134282 
H     4.2672327   -0.0355660   -1.6429089 
H     8.5327578   -1.6976629   -0.3274498 
H     8.3906634   -0.0077672    0.2479577 
H     9.1052793   -0.3613092   -1.3496737 
H     5.8501075    1.0420365   -2.4290246 
H     6.7528502    1.6376390   -1.0120106 
H     7.6230788    1.1628206   -2.5036483 
H     5.8947568   -1.4450527   -3.0328924 
H     6.9855901   -2.5660161   -2.1702779 
H     7.6653126   -1.3006392   -3.2401237 
H     7.0069956   -1.8317972    1.1584680 
H     2.7769701   -1.7967333    1.9990965 
H     4.2031092   -3.4688847    4.7951075 
H     3.2336986   -3.5767722    3.3048985 
H     3.4273229   -2.0058839    4.1414438 
H     7.1345266   -1.6036506    3.3953852 
H     6.4278226   -2.3492778    4.8528234 
H     5.7224585   -0.8488989    4.1870428 
H     6.1180660   -4.5794901    3.6437439 
H     5.2303322   -4.6469495    2.0903883 
H     6.8447435   -3.8882006    2.1680934 
