203
Energy =
C     2.4684094    1.6803736    2.2350988 
C     1.3083300    2.1595097    2.9179122 
C     0.4026240    1.2758090    3.5445189 
H     1.0109625    3.2096193    2.8023363 
Pd    0.6526748    0.7652156    1.3327663 
P    -1.5087855    0.1942463    0.6824064 
P     1.6476445   -0.3230214   -0.4776315 
H     2.9593469    0.7818053    2.6311572 
H     0.7553417    0.2550291    3.7648114 
C     4.9675423    4.1195576   -0.2887226 
C     5.4362569    2.9001118    0.2208548 
C     4.6220907    2.1175904    1.0490549 
C     3.3132742    2.5359290    1.3798180 
C     2.8520784    3.7670815    0.8550211 
C     3.6713731    4.5518578    0.0389672 
H     5.6064812    4.7321247   -0.9330738 
H     6.4463309    2.5565174   -0.0233309 
H     4.9989764    1.1681946    1.4446685 
H     1.8364368    4.1110811    1.0788178 
H     3.2965215    5.5051998   -0.3477018 
C    -3.1796238    2.4008338    5.6355878 
C    -2.9990192    1.0832379    5.1865021 
C    -1.8280874    0.7248186    4.5124684 
C    -0.8198016    1.6822060    4.2565401 
C    -1.0107404    3.0030789    4.7210973 
C    -2.1775145    3.3559015    5.4075837 
H    -4.0926729    2.6811444    6.1702626 
H    -3.7764096    0.3316567    5.3594990 
H    -1.6979652   -0.3019103    4.1547671 
H    -0.2239786    3.7507382    4.5795268 
H    -2.2996937    4.3781835    5.7799064 
C    -3.3760566    5.8016727    0.2784122 
C    -2.8335497    5.2512139    1.6242983 
C    -1.3002648    5.4434412    1.6576029 
C    -3.4459239    6.0567014    2.7948307 
C    -3.2243130    3.7626358    1.7112333 
C    -2.3249438    2.7453830    1.3491385 
C    -4.5259972    3.3737602    2.0836651 
C    -4.9505537    2.0295331    2.1100340 
C    -6.3946302    1.6869104    2.5276904 
C    -6.6478168    0.1643347    2.5351021 
C    -7.3752844    2.3438281    1.5218205 
C    -6.6707338    2.2321934    3.9517354 
C    -4.0294460    1.0411954    1.7218420 
C    -2.7297428    1.3984313    1.3290735 
C    -2.0538128   -1.4750879    1.1769234 
C    -1.2727496   -2.1693468    2.1111660 
C    -1.6804911   -3.4228077    2.6076831 
C    -0.7840217   -4.1710326    3.6142291 
C    -0.3572373   -3.2142914    4.7567492 
C     0.4775228   -4.6688226    2.8631553 
C    -1.5008961   -5.3852317    4.2408524 
C    -2.8918813   -3.9448941    2.1228274 
C    -3.6843213   -3.2851220    1.1546395 
C    -3.2439809   -2.0410993    0.6791756 
C    -4.9956884   -3.9328276    0.6704659 
C    -5.9767119   -4.0355860    1.8670087 
C    -5.6657793   -3.1057607   -0.4467934 
C    -4.6971990   -5.3506479    0.1205428 
C    -1.7288629    0.3036010   -1.1487307 
C    -2.4153676    1.3973301   -1.7156581 
C    -2.5110689    1.5184720   -3.1060550 
C    -1.9246233    0.5694043   -3.9509140 
C    -1.1376175   -0.6717270   -1.9853479 
C    -1.2444343   -0.5251428   -3.3932211 
C    -0.4651423   -1.9094314   -1.4867785 
C    -1.1216111   -3.1421156   -1.7381639 
O    -2.3631156   -3.0460057   -2.3034909 
C    -2.8374619   -4.0894006   -3.1737217 
C    -2.1638658   -4.0455207   -4.5460297 
C    -2.3834769   -2.7174993   -5.3155651 
C    -1.1288705   -1.8497240   -5.4253175 
O    -0.6128551   -1.4843990   -4.1337076 
C    -0.5236695   -4.3606800   -1.3783914 
C     0.7405432   -4.3562187   -0.7801218 
C     1.4084592   -3.1534647   -0.5250026 
C     0.8095727   -1.9254307   -0.8720850 
C     1.7077839    0.6011095   -2.0482761 
C     2.1527164   -0.0239538   -3.2276814 
C     2.2333987    0.7060739   -4.4253417 
C     2.7904043    0.0969887   -5.7265694 
C     4.1309299    0.8010122   -6.0636693 
C     1.7900798    0.3195555   -6.8881313 
C     3.0461650   -1.4184111   -5.5852420 
C     1.8087780    2.0499360   -4.4016364 
C     1.3142850    2.6873558   -3.2467993 
C     1.2906245    1.9428302   -2.0549932 
C     0.8474864    4.1542563   -3.3160576 
C     0.1631121    4.5961546   -2.0049548 
C    -0.1676121    4.3305774   -4.4731296 
C     2.0837101    5.0551074   -3.5698607 
C     3.3599481   -0.8163444   -0.0405206 
C     3.5458721   -1.3726828    1.2412229 
C     4.8206210   -1.7568389    1.6841612 
C     5.0670439   -2.3280632    3.0936708 
C     5.6277544   -3.7677034    2.9693930 
C     3.7729774   -2.3769846    3.9341188 
C     6.0913349   -1.4263312    3.8298898 
C     5.8987388   -1.5816571    0.7898558 
C     5.7487672   -1.0242848   -0.4939653 
C     4.4562801   -0.6294991   -0.8947562 
C     6.9689517   -0.8905120   -1.4267341 
C     6.6345016   -0.0808312   -2.6978571 
C     7.4152965   -2.3155712   -1.8476800 
C     8.1349019   -0.1849585   -0.6899805 
H    -3.1255076    6.8723626    0.1682914 
H    -4.4735968    5.6960781    0.2221383 
H    -2.9354400    5.2537251   -0.5736798 
H    -1.0587575    6.5201405    1.6492491 
H    -0.8054380    4.9912932    0.7813752 
H    -0.8656442    5.0020397    2.5711636 
H    -4.5486153    6.0608955    2.7651390 
H    -3.1144637    7.1083757    2.7421371 
H    -3.1300535    5.6402719    3.7663841 
H    -1.2974989    2.9888194    1.0581013 
H    -5.2427463    4.1506855    2.3658585 
H    -7.6842796   -0.0392427    2.8543731 
H    -5.9715810   -0.3590090    3.2344380 
H    -6.5163906   -0.2775586    1.5318211 
H    -8.4192271    2.1072051    1.7947207 
H    -7.2705096    3.4425216    1.5103792 
H    -7.1919287    1.9732361    0.4979121 
H    -5.9993553    1.7583762    4.6875970 
H    -6.5224847    3.3241205    4.0098482 
H    -7.7134048    2.0172348    4.2457995 
H    -4.3144076   -0.0118603    1.7287891 
H    -0.3279841   -1.7208901    2.4383842 
H    -1.2378994   -2.8043094    5.2815025 
H     0.2621104   -3.7556325    5.4933577 
H     0.2442837   -2.3667162    4.3841442 
H     1.1697866   -5.1728962    3.5615686 
H     0.2009755   -5.3827258    2.0686377 
H     1.0134457   -3.8319028    2.3835698 
H    -2.4252692   -5.0842393    4.7646549 
H    -1.7616117   -6.1444853    3.4829959 
H    -0.8369240   -5.8703000    4.9769947 
H    -3.2367626   -4.9110975    2.4994699 
H    -3.8043820   -1.5046798   -0.0894322 
H    -6.2006094   -3.0344173    2.2752422 
H    -6.9267050   -4.4983996    1.5448967 
H    -5.5595749   -4.6512755    2.6826624 
H    -5.9675990   -2.1058521   -0.0886683 
H    -6.5766742   -3.6208910   -0.7972250 
H    -4.9904837   -2.9724359   -1.3090646 
H    -4.2758043   -6.0126300    0.8962309 
H    -5.6250310   -5.8199044   -0.2519774 
H    -3.9748945   -5.2996063   -0.7117270 
H    -2.8875936    2.1442513   -1.0728918 
H    -3.0541271    2.3647823   -3.5390586 
H    -1.9945538    0.6857795   -5.0351805 
H    -3.9190640   -3.8955790   -3.2596367 
H    -2.7165318   -5.0826291   -2.7043809 
H    -2.5655594   -4.8943519   -5.1287217 
H    -1.0827507   -4.2412913   -4.4168849 
H    -2.7235931   -2.9259305   -6.3462062 
H    -3.1850097   -2.1233667   -4.8377231 
H    -1.3177143   -0.9545191   -6.0450659 
H    -0.3037947   -2.4092626   -5.8953768 
H    -1.0382197   -5.3071103   -1.5622103 
H     1.2131340   -5.3055963   -0.5084208 
H     2.4019939   -3.1745355   -0.0713251 
H     2.4209178   -1.0824407   -3.1989972 
H     3.9894370    1.8858297   -6.2114971 
H     4.5613450    0.3837903   -6.9917193 
H     4.8627522    0.6627493   -5.2490317 
H     0.8167948   -0.1456172   -6.6605580 
H     1.6173936    1.3914334   -7.0845469 
H     2.1805371   -0.1298882   -7.8182831 
H     3.4046853   -1.8281653   -6.5451842 
H     2.1249835   -1.9573282   -5.3026768 
H     3.8179412   -1.6341659   -4.8251815 
H     1.8608802    2.6268647   -5.3307758 
H     0.9332823    2.3825005   -1.1196675 
H    -0.7045943    3.9546791   -1.7691072 
H     0.8611823    4.5630335   -1.1520054 
H    -0.1971615    5.6351775   -2.0999680 
H    -0.5182219    5.3771452   -4.5136786 
H    -1.0423969    3.6748543   -4.3265528 
H     0.2781962    4.0921663   -5.4539355 
H     2.5692746    4.8064484   -4.5296920 
H     2.8308761    4.9256657   -2.7685365 
H     1.7855848    6.1185302   -3.6050656 
H     2.6746654   -1.4918541    1.8932349 
H     6.5751047   -3.7875355    2.4036307 
H     4.9072041   -4.4245078    2.4507619 
H     5.8233586   -4.1906124    3.9708356 
H     3.3333820   -1.3717021    4.0688670 
H     3.0101027   -3.0318905    3.4795842 
H     3.9972785   -2.7760182    4.9380478 
H     5.7145180   -0.3910054    3.9105215 
H     7.0613063   -1.3948325    3.3050366 
H     6.2732726   -1.8084009    4.8500399 
H     6.8989875   -1.8864104    1.1140792 
H     4.2998009   -0.1630473   -1.8683530 
H     7.5381871    0.0200130   -3.3229531 
H     6.2748094    0.9342911   -2.4526548 
H     5.8639619   -0.5811159   -3.3100866 
H     7.6963273   -2.9244906   -0.9706751 
H     8.2902701   -2.2608054   -2.5199359 
H     6.6015294   -2.8395032   -2.3793184 
H     9.0023957   -0.0831418   -1.3653735 
H     7.8393826    0.8245991   -0.3562283 
H     8.4695054   -0.7511320    0.1958624 
