203
Energy =
C     2.2741146    1.3787440    2.6816699 
C     1.0716426    2.0441648    3.0823871 
C    -0.0333172    1.2861479    3.5347410 
H     0.9517924    3.1174690    2.8888209 
Pd    0.5759756    0.6915264    1.4238052 
P    -1.5348998    0.4427273    0.4661352 
P     1.6495747   -0.5888321   -0.1909437 
H     2.5194304    0.4414077    3.1993994 
H     0.1887918    0.2639123    3.8797935 
C     5.6863753    3.3274852    0.9170293 
C     5.8284640    2.1150529    1.6073417 
C     4.7102183    1.4888741    2.1694176 
C     3.4237580    2.0617636    2.0586873 
C     3.2928485    3.2780432    1.3474654 
C     4.4116691    3.9048856    0.7899110 
H     6.5601177    3.8199889    0.4778768 
H     6.8151143    1.6518904    1.7130404 
H     4.8297571    0.5405119    2.7013047 
H     2.3036530    3.7309730    1.2178275 
H     4.2903443    4.8480853    0.2476022 
C    -3.9498297    2.5841364    4.7208578 
C    -3.5892422    1.2300684    4.7853353 
C    -2.3078283    0.8311681    4.3943596 
C    -1.3611897    1.7735676    3.9276163 
C    -1.7443933    3.1324761    3.8575334 
C    -3.0251480    3.5310561    4.2504548 
H    -4.9479636    2.9017695    5.0386620 
H    -4.3055289    0.4839229    5.1447360 
H    -2.0306549   -0.2266322    4.4439872 
H    -1.0362819    3.8844423    3.4981390 
H    -3.3059762    4.5869948    4.1876248 
C    -0.2098946    5.5899331    0.5043861 
C    -1.7436463    5.7622021    0.5375799 
C    -2.0948332    6.6958936    1.7236574 
C    -2.2001872    6.4151337   -0.7927301 
C    -2.4726217    4.4137567    0.6990542 
C    -1.8042463    3.1822802    0.6110212 
C    -3.8631762    4.3830182    0.9308508 
C    -4.5850132    3.1894151    1.1224733 
C    -6.1119942    3.2232769    1.3314301 
C    -6.6466986    1.8759829    1.8664414 
C    -6.7710878    3.5143843   -0.0431043 
C    -6.5087682    4.3363878    2.3319790 
C    -3.8781176    1.9736739    1.0449107 
C    -2.5056776    1.9686302    0.7612646 
C    -2.4490141   -1.0084420    1.0885306 
C    -3.7031861   -1.3807822    0.5755277 
C    -4.3821936   -2.4913100    1.1078277 
C    -5.7922899   -2.8924094    0.6323352 
C    -6.2179297   -2.1065017   -0.6264557 
C    -6.7959577   -2.5870292    1.7750674 
C    -5.8347130   -4.4045442    0.2987438 
C    -3.7452073   -3.2245215    2.1303741 
C    -2.4628185   -2.9086712    2.6230580 
C    -1.8291284   -1.7774624    2.0878513 
C    -1.8070054   -3.7702444    3.7193444 
C    -2.6149166   -3.6072003    5.0324398 
C    -1.8113440   -5.2584362    3.2878831 
C    -0.3431351   -3.3487763    3.9779296 
C    -1.5599085    0.2804874   -1.3710229 
C    -2.0781299    1.3088509   -2.1836918 
C    -2.0628013    1.1714543   -3.5762210 
C    -1.5326313    0.0247692   -4.1774241 
C    -1.0233929   -0.8883138   -1.9580371 
C    -1.0202676   -1.0052554   -3.3718733 
C    -0.5489273   -2.0762997   -1.1838666 
C    -1.3517579   -3.2440997   -1.2770972 
O    -2.5314628   -3.0892008   -1.9477098 
C    -3.1136822   -4.2039087   -2.6437151 
C    -2.3605256   -4.5290934   -3.9351427 
C    -2.3209127   -3.3598029   -4.9531250 
C    -0.9467964   -2.7044747   -5.1063180 
O    -0.4641180   -2.1515369   -3.8688331 
C    -0.9459923   -4.4477860   -0.6791794 
C     0.2746645   -4.4961663    0.0025658 
C     1.0786399   -3.3567380    0.1153917 
C     0.6700982   -2.1380168   -0.4653975 
C     1.9088092    0.1473821   -1.8381188 
C     1.7482847    1.5280572   -2.0093534 
C     2.0073564    2.1287227   -3.2595161 
C     1.7982753    3.6460138   -3.4369815 
C     0.2918712    3.9650382   -3.2616389 
C     2.2449400    4.1410949   -4.8279547 
C     2.6148914    4.4050112   -2.3621662 
C     2.4445178    1.2940832   -4.3016489 
C     2.6129599   -0.1027585   -4.1563441 
C     2.3246180   -0.6700365   -2.9084085 
C     3.1250469   -0.9419734   -5.3418760 
C     4.5701952   -0.4923569   -5.6808182 
C     2.2084490   -0.7181424   -6.5707506 
C     3.1423520   -2.4494259   -5.0117007 
C     3.2970446   -1.1535731    0.3829846 
C     4.4540072   -0.9887701   -0.3913912 
C     5.7097766   -1.4018009    0.0932601 
C     6.9510497   -1.2584353   -0.8099494 
C     6.9605008    0.1233147   -1.5116118 
C     6.8827620   -2.3726713   -1.8887807 
C     8.2651107   -1.4080669   -0.0137408 
C     5.7650063   -1.9906928    1.3721898 
C     4.6197527   -2.1653185    2.1781486 
C     3.3887485   -1.7189110    1.6686935 
C     4.6625558   -2.8350702    3.5667615 
C     6.1052327   -3.1274693    4.0284262 
C     3.8829279   -4.1742777    3.4875302 
C     3.9901886   -1.9148690    4.6177474 
H     0.2753670    6.5772748    0.4200195 
H     0.1224317    4.9856459   -0.3560035 
H     0.1616601    5.1130671    1.4294447 
H    -1.5699883    7.6613767    1.6156411 
H    -1.7882396    6.2454918    2.6843441 
H    -3.1757032    6.9091741    1.7770957 
H    -1.9516765    5.7664517   -1.6509271 
H    -1.6990559    7.3891858   -0.9367675 
H    -3.2902908    6.5883542   -0.8007614 
H    -0.7263446    3.1436288    0.4206147 
H    -4.4045465    5.3327951    0.9758936 
H    -7.7294045    1.9568775    2.0634120 
H    -6.1456440    1.5876911    2.8071341 
H    -6.5076380    1.0583745    1.1376897 
H    -7.8711677    3.5471449    0.0553251 
H    -6.4330376    4.4843159   -0.4482820 
H    -6.5108441    2.7300101   -0.7757518 
H    -6.0171836    4.1854570    3.3075977 
H    -6.2394142    5.3413790    1.9651515 
H    -7.6013474    4.3280092    2.4901888 
H    -4.3949503    1.0253660    1.1990954 
H    -4.1315844   -0.8089373   -0.2503943 
H    -5.4998201   -2.2496818   -1.4529086 
H    -7.2083162   -2.4548901   -0.9663225 
H    -6.3010490   -1.0235923   -0.4268025 
H    -7.8222589   -2.8594184    1.4699001 
H    -6.5490170   -3.1559279    2.6884437 
H    -6.7832119   -1.5125442    2.0295842 
H    -5.1059716   -4.6521118   -0.4915627 
H    -5.6081817   -5.0299526    1.1789142 
H    -6.8411554   -4.6866069   -0.0574684 
H    -4.2674176   -4.0890474    2.5533088 
H    -0.8292527   -1.4826283    2.4180223 
H    -3.6640260   -3.9244396    4.9010074 
H    -2.1715971   -4.2203086    5.8373387 
H    -2.6184296   -2.5535499    5.3641712 
H    -2.8360419   -5.6412481    3.1433727 
H    -1.3291408   -5.8811570    4.0621725 
H    -1.2603944   -5.3890251    2.3410393 
H    -0.2730015   -2.3160353    4.3649211 
H     0.1099674   -4.0127925    4.7339431 
H     0.2624852   -3.4162717    3.0569046 
H    -2.5022429    2.2083121   -1.7312643 
H    -2.4715547    1.9698317   -4.2040937 
H    -1.5189261   -0.0643597   -5.2666573 
H    -4.1427602   -3.8748910   -2.8619557 
H    -3.1816541   -5.0900354   -1.9862304 
H    -2.8561561   -5.4083211   -4.3852844 
H    -1.3336806   -4.8495783   -3.6771274 
H    -2.6166544   -3.7194983   -5.9554072 
H    -3.0561299   -2.5817620   -4.6737415 
H    -0.9617338   -1.9381915   -5.9028534 
H    -0.1830127   -3.4501303   -5.3811908 
H    -1.5719775   -5.3409623   -0.7454575 
H     0.6068246   -5.4377836    0.4520094 
H     2.0353941   -3.4266812    0.6372628 
H     1.4141407    2.1289753   -1.1561058 
H    -0.3045262    3.4715832   -4.0472132 
H     0.1200518    5.0547759   -3.3240154 
H    -0.0881189    3.6107843   -2.2882234 
H     3.3166790    3.9434611   -5.0059140 
H     1.6633253    3.6678394   -5.6386054 
H     2.0881122    5.2312480   -4.9009336 
H     2.4792198    5.4952818   -2.4780997 
H     3.6910730    4.1758418   -2.4488163 
H     2.2969518    4.1323869   -1.3429613 
H     2.6652481    1.7401943   -5.2743742 
H     2.4145940   -1.7466214   -2.7471355 
H     4.6082760    0.5748882   -5.9601771 
H     5.2386288   -0.6412056   -4.8140835 
H     4.9666634   -1.0799446   -6.5281726 
H     2.5543059   -1.3297864   -7.4228703 
H     2.2048702    0.3362790   -6.8958847 
H     1.1694180   -1.0051209   -6.3358068 
H     2.1396447   -2.8092148   -4.7236731 
H     3.8407843   -2.6784521   -4.1873293 
H     3.4746777   -3.0211163   -5.8953573 
H     4.3760716   -0.5298192   -1.3793598 
H     6.9345932    0.9448226   -0.7762090 
H     6.0999733    0.2511058   -2.1907556 
H     7.8763672    0.2267727   -2.1195315 
H     6.8828422   -3.3734143   -1.4225910 
H     5.9640058   -2.2789605   -2.4950397 
H     7.7515101   -2.3054603   -2.5682804 
H     8.3723733   -2.4149793    0.4256425 
H     8.3287456   -0.6653235    0.8016010 
H     9.1271011   -1.2509997   -0.6846346 
H     6.7309715   -2.3213262    1.7553901 
H     2.4810738   -1.8105870    2.2765217 
H     6.0887138   -3.5885014    5.0309098 
H     6.7067582   -2.2035758    4.0922594 
H     6.6181779   -3.8305487    3.3492877 
H     2.8281212   -4.0098708    3.2042673 
H     3.8946038   -4.6853277    4.4669644 
H     4.3368580   -4.8479530    2.7399125 
H     4.0322567   -2.3838166    5.6165505 
H     4.5020641   -0.9382040    4.6771380 
H     2.9255819   -1.7333598    4.3853770 
