203
Energy =
C     2.2898058    1.4293881    2.6569172 
C     1.0638327    1.9865923    3.1388827 
C     0.0358578    1.1405781    3.6169327 
H     0.8589381    3.0541131    2.9893638 
Pd    0.5859494    0.6508651    1.4582747 
P    -1.5412841    0.2412104    0.6098547 
P     1.6823486   -0.4206101   -0.2903905 
H     2.6299498    0.4938718    3.1220559 
H     0.3395654    0.1249768    3.9163349 
C     5.4519795    3.7103013    0.8261597 
C     5.7235475    2.4945366    1.4700429 
C     4.6855753    1.7593276    2.0536799 
C     3.3524925    2.2238197    2.0114026 
C     3.0907955    3.4447616    1.3459321 
C     4.1291682    4.1805290    0.7664809 
H     6.2624887    4.2880889    0.3699799 
H     6.7488292    2.1133477    1.5212922 
H     4.9055359    0.8091848    2.5490531 
H     2.0623207    3.8153328    1.2700359 
H     3.9071760    5.1254381    0.2603792 
C    -3.8663586    2.1704767    5.0882076 
C    -3.4335733    0.8366301    5.0648329 
C    -2.1617462    0.5248573    4.5761568 
C    -1.2937051    1.5356710    4.1010280 
C    -1.7501349    2.8734470    4.1190473 
C    -3.0227351    3.1846137    4.6068642 
H    -4.8567741    2.4204299    5.4814868 
H    -4.0864881    0.0376379    5.4311898 
H    -1.8301392   -0.5164963    4.5570264 
H    -1.1053494    3.6788590    3.7559747 
H    -3.3609557    4.2254146    4.6117708 
C    -7.0628350    2.6903101    0.5168014 
C    -6.3055505    2.5027635    1.8585024 
C    -6.7773041    3.5810755    2.8640928 
C    -6.6518882    1.1128336    2.4387224 
C    -4.7978086    2.6381045    1.5674328 
C    -3.9785670    1.5039883    1.4017496 
C    -4.2127829    3.9047473    1.3800819 
C    -2.8482969    4.0853992    1.0724049 
C    -2.2716272    5.5059771    0.9123062 
C    -0.7332346    5.4948577    0.7847552 
C    -2.6428158    6.3718483    2.1425682 
C    -2.8728548    6.1392811   -0.3692796 
C    -2.0652963    2.9327762    0.9041703 
C    -2.6322223    1.6492353    1.0431096 
C    -2.2910254   -1.3200018    1.1881134 
C    -3.5152034   -1.7805047    0.6652149 
C    -4.0882561   -2.9654205    1.1499972 
C    -5.4560925   -3.4756655    0.6571318 
C    -5.9793197   -2.6498268   -0.5374799 
C    -6.4718204   -3.3627619    1.8240556 
C    -5.3411540   -4.9560342    0.2145846 
C    -3.3833898   -3.6853332    2.1423767 
C    -2.1377600   -3.2756841    2.6496320 
C    -1.6051276   -2.0687573    2.1553861 
C    -1.3413685   -4.0949460    3.6867539 
C    -1.0146386   -3.2110844    4.9166364 
C    -2.1212578   -5.3338971    4.1734290 
C    -0.0163122   -4.5689954    3.0371343 
C    -1.6641888    0.1910601   -1.2316774 
C    -2.3379392    1.2099632   -1.9362395 
C    -2.3936814    1.1746508   -3.3336232 
C    -1.7797792    0.1411323   -4.0486653 
C    -1.0468934   -0.8688645   -1.9342811 
C    -1.1134685   -0.8800616   -3.3526784 
C    -0.4040996   -2.0557780   -1.2908950 
C    -1.0701609   -3.2974801   -1.4676935 
O    -2.3031237   -3.2202913   -2.0505366 
C    -2.8096509   -4.3290829   -2.8119251 
C    -2.1070596   -4.4716165   -4.1636347 
C    -2.2383647   -3.2268224   -5.0786541 
C    -0.9490417   -2.4165394   -5.2272306 
O    -0.4681355   -1.9172400   -3.9668962 
C    -0.4801545   -4.4991834   -1.0441982 
C     0.7849878   -4.4681366   -0.4489170 
C     1.4511893   -3.2552900   -0.2430458 
C     0.8598988   -2.0420534   -0.6517599 
C     1.7848820    0.4409019   -1.8948477 
C     2.2275763   -0.2701798   -3.0285942 
C     2.4017741    0.3904570   -4.2512914 
C     2.9437770   -0.3262621   -5.5021363 
C     3.1093616   -1.8425758   -5.2668302 
C     4.3293054    0.2748517   -5.8552319 
C     1.9688856   -0.1158414   -6.6875540 
C     2.0890489    1.7684705   -4.3067222 
C     1.6180653    2.4954583   -3.2005558 
C     1.4793626    1.8050666   -1.9774530 
C     1.2452152    3.9892004   -3.2840662 
C     1.5785585    4.6015096   -4.6600784 
C     2.0233609    4.7747008   -2.1999221 
C    -0.2779393    4.1343366   -3.0377524 
C     3.4045558   -0.8566951    0.1649214 
C     3.6128012   -1.5014880    1.3982414 
C     4.9026141   -1.8749580    1.8124263 
C     5.0763344   -2.6322850    3.1447860 
C     4.3595096   -4.0035219    3.0285025 
C     4.4371909   -1.8170278    4.2981071 
C     6.5603988   -2.8777036    3.4869547 
C     5.9832204   -1.5457868    0.9667874 
C     5.8096340   -0.8744625   -0.2601216 
C     4.4995441   -0.5370227   -0.6500472 
C     6.9843404   -0.5681414   -1.2106323 
C     6.9610348   -1.6269232   -2.3457917 
C     8.3459487   -0.6361611   -0.4860689 
C     6.8338641    0.8424844   -1.8339658 
H    -8.1531655    2.6009484    0.6724535 
H    -6.7527888    1.9255068   -0.2173035 
H    -6.8569314    3.6838211    0.0811538 
H    -7.8486715    3.4408840    3.0902881 
H    -6.6599832    4.6029838    2.4651466 
H    -6.2126595    3.5155518    3.8094534 
H    -6.4641691    0.3029044    1.7123559 
H    -7.7234099    1.0746422    2.6997857 
H    -6.0659352    0.9001517    3.3498110 
H    -4.3886010    0.5022973    1.5407676 
H    -4.8432806    4.7919167    1.4894865 
H    -0.3570731    6.5290883    0.7047345 
H    -0.3952526    4.9518751   -0.1131552 
H    -0.2580749    5.0338516    1.6695667 
H    -2.2379968    7.3923463    2.0241741 
H    -3.7344247    6.4600806    2.2737295 
H    -2.2210894    5.9427323    3.0683477 
H    -2.6164513    5.5376812   -1.2587734 
H    -3.9730480    6.2027797   -0.3064699 
H    -2.4800273    7.1614950   -0.5160719 
H    -1.0016723    3.0107271    0.6543325 
H    -3.9987765   -1.2102162   -0.1309299 
H    -5.2658733   -2.6630900   -1.3800353 
H    -6.9367620   -3.0701090   -0.8902337 
H    -6.1637998   -1.5968768   -0.2595334 
H    -7.4669470   -3.7200187    1.5037939 
H    -6.1565215   -3.9669697    2.6925722 
H    -6.5701828   -2.3144510    2.1567621 
H    -4.5990301   -5.0659090   -0.5940449 
H    -5.0379700   -5.6139923    1.0467714 
H    -6.3157721   -5.3186123   -0.1570808 
H    -3.8274644   -4.6092964    2.5202368 
H    -0.6312344   -1.7054346    2.5027689 
H    -1.9366519   -2.8265812    5.3863276 
H    -0.4634365   -3.7980950    5.6722867 
H    -0.3802217   -2.3494769    4.6433728 
H    -3.0741578   -5.0529609    4.6556702 
H    -1.5185608   -5.8838267    4.9165584 
H    -2.3417508   -6.0295850    3.3448306 
H     0.5847477   -3.7178171    2.6727297 
H     0.5911157   -5.1315829    3.7689127 
H    -0.2181162   -5.2235327    2.1729561 
H    -2.8276344    2.0232315   -1.3961484 
H    -2.9239186    1.9651641   -3.8745383 
H    -1.8212450    0.1321357   -5.1406912 
H    -3.8771483   -4.0918536   -2.9494374 
H    -2.7514896   -5.2676203   -2.2303000 
H    -2.5449466   -5.3560580   -4.6610908 
H    -1.0409532   -4.7097093   -3.9896444 
H    -2.5400516   -3.5351374   -6.0962001 
H    -3.0383015   -2.5590376   -4.7072492 
H    -1.0807235   -1.5944091   -5.9543017 
H    -0.1259738   -3.0513079   -5.5940051 
H    -0.9959047   -5.4524156   -1.1840415 
H     1.2589426   -5.4040459   -0.1357477 
H     2.4418281   -3.2601191    0.2165991 
H     2.4297094   -1.3395843   -2.9353319 
H     3.8572285   -2.0545129   -4.4822610 
H     3.4569462   -2.3284587   -6.1948254 
H     2.1552058   -2.3095477   -4.9678100 
H     4.2601781    1.3561921   -6.0662346 
H     5.0393563    0.1357641   -5.0206463 
H     4.7464077   -0.2206569   -6.7501577 
H     2.3386833   -0.6427615   -7.5849908 
H     1.8604439    0.9508339   -6.9480140 
H     0.9681656   -0.5091517   -6.4409622 
H     2.2200985    2.2875540   -5.2591378 
H     1.1265057    2.3214221   -1.0777279 
H     2.6564413    4.5279943   -4.8883538 
H     1.0150494    4.1131637   -5.4745261 
H     1.3068113    5.6712548   -4.6647587 
H     1.7658193    5.8478464   -2.2464155 
H     3.1125929    4.6699281   -2.3437906 
H     1.7838600    4.4151150   -1.1861974 
H    -0.5791387    3.6871924   -2.0750600 
H    -0.8500705    3.6233719   -3.8302250 
H    -0.5665454    5.2007800   -3.0292197 
H     2.7488745   -1.7186064    2.0376389 
H     4.7900263   -4.6015094    2.2062235 
H     3.2795214   -3.8811735    2.8324345 
H     4.4699011   -4.5759573    3.9669670 
H     4.9123816   -0.8249354    4.3945917 
H     3.3537241   -1.6661849    4.1436028 
H     4.5618022   -2.3500626    5.2571415 
H     7.1185844   -1.9296439    3.5821105 
H     7.0588091   -3.5000253    2.7233306 
H     6.6366752   -3.4104704    4.4503649 
H     6.9926065   -1.8196551    1.2757035 
H     4.3292801   -0.0179969   -1.5956179 
H     7.7834303   -1.4442164   -3.0608764 
H     6.0069191   -1.5879052   -2.9011465 
H     7.0759404   -2.6460679   -1.9371550 
H     8.3829189    0.0639600    0.3676619 
H     9.1543018   -0.3626698   -1.1857049 
H     8.5677986   -1.6507038   -0.1119639 
H     7.7054681    1.0614694   -2.4753130 
H     5.9331699    0.9243618   -2.4664443 
H     6.7700477    1.6193588   -1.0537574 
