104
Energy =
C    -0.3988428    3.7513825    0.0120009 
C    -1.2274591    3.3689500   -1.0673576 
C    -2.5007652    2.7597502   -0.8445949 
H    -0.8268460    3.4091553   -2.0886786 
Pd   -0.8820363    1.5225398    0.0685223 
P     1.2427019    0.7070529    0.6632562 
P    -1.7815342   -0.6262740    0.1350724 
H    -0.8892404    3.9249423    0.9828435 
H    -3.0532074    3.0599516    0.0581784 
C     3.5030393    5.5348226   -0.2718884 
C     2.7029300    5.7316879    0.8629783 
C     1.4417949    5.1308307    0.9458292 
C     0.9475571    4.3342021   -0.1112974 
C     1.7668946    4.1415100   -1.2477909 
C     3.0312895    4.7326072   -1.3244897 
H     4.4919946    6.0002552   -0.3361704 
H     3.0644306    6.3496936    1.6908919 
H     0.8248307    5.2816043    1.8378585 
H     1.4210506    3.5146519   -2.0743317 
H     3.6530472    4.5669617   -2.2104111 
C    -4.9116545    1.1364346   -4.0224089 
C    -3.5105306    1.1238208   -4.1295082 
C    -2.7221161    1.6547857   -3.1043867 
C    -3.3156385    2.2132899   -1.9474442 
C    -4.7239667    2.2246048   -1.8589568 
C    -5.5139006    1.6922721   -2.8852983 
H    -5.5285086    0.7141220   -4.8221150 
H    -3.0319784    0.6895057   -5.0138199 
H    -1.6302975    1.6091401   -3.1871340 
H    -5.2022801    2.6564574   -0.9733911 
H    -6.6046010    1.7060716   -2.7929448 
C    -2.1019436   -2.8423783    1.8568351 
C    -2.2529364   -3.4453878    3.1101440 
C    -2.1289042   -2.6809217    4.2823590 
C    -1.8439847   -1.3108404    4.2003486 
C    -1.6844673   -0.7030290    2.9463123 
C    -1.8104853   -1.4656871    1.7719138 
C    -3.5286330   -0.9356286   -0.3560702 
C    -4.4888404   -0.1140821    0.2679714 
C    -5.8551012   -0.3692611    0.1026827 
C    -6.2762182   -1.4380594   -0.7018423 
C    -5.3253723   -2.2594608   -1.3251026 
C    -3.9551995   -2.0210449   -1.1465386 
C    -0.6958493   -1.5348529   -1.0406417 
C    -1.0797712   -1.4514550   -2.3932739 
C    -0.2817474   -2.0415736   -3.3800408 
C     0.8777073   -2.7181821   -3.0151908 
C     0.5315790   -2.1461290   -0.6468494 
C     1.2941619   -2.7927208   -1.6678240 
C     0.9686140   -2.1198511    0.7870057 
C     1.0384680   -3.3597770    1.4635853 
O     0.6841859   -4.4553007    0.7268591 
C     1.6867169   -5.4713293    0.4980863 
C     3.1228302   -4.9352091    0.3861770 
C     3.2920258   -3.6166663   -0.3964252 
O     2.4289052   -3.5384757   -1.5405261 
C     1.4449349   -3.4491888    2.8020408 
C     1.8190748   -2.2840234    3.4791508 
C     1.7775453   -1.0431531    2.8295170 
C     1.3468562   -0.9446518    1.4914535 
C     2.2671668    0.4506588   -0.8394930 
C     3.5473277   -0.1352751   -0.7463610 
C     4.2850136   -0.3961171   -1.9082092 
C     3.7489580   -0.0863315   -3.1682110 
C     2.4715254    0.4839373   -3.2660310 
C     1.7332157    0.7516997   -2.1061934 
C     2.1435275    1.8443477    1.7870218 
C     3.4571227    2.2931623    1.5604280 
C     4.0748580    3.1459053    2.4873384 
C     3.3936404    3.5534106    3.6423681 
C     2.0726928    3.1306613    3.8601853 
C     1.4458127    2.2918306    2.9309443 
H    -2.1931453   -3.4435671    0.9459869 
H    -2.4692634   -4.5168660    3.1724080 
H    -2.2558784   -3.1557298    5.2608577 
H    -1.7459392   -0.7127278    5.1122618 
H    -1.4627600    0.3686329    2.8731936 
H    -4.1594991    0.7225928    0.8956428 
H    -6.5919057    0.2740851    0.5947016 
H    -7.3446487   -1.6338476   -0.8393870 
H    -5.6492201   -3.1012280   -1.9460453 
H    -3.2253924   -2.6887714   -1.6139711 
H    -2.0004445   -0.9317621   -2.6717529 
H    -0.5737646   -1.9816419   -4.4334835 
H     1.5123775   -3.2100989   -3.7573774 
H     1.3758017   -5.9353221   -0.4508500 
H     1.6349449   -6.2416968    1.2914456 
H     3.7163443   -5.7354765   -0.0910010 
H     3.5590262   -4.7759532    1.3889469 
H     3.1545315   -2.7423682    0.2538909 
H     4.3137847   -3.5654570   -0.8086339 
H     1.4637670   -4.4250158    3.2960739 
H     2.1462557   -2.3379991    4.5223954 
H     2.0868714   -0.1464074    3.3719592 
H     3.9583368   -0.4015452    0.2336876 
H     5.2776710   -0.8519384   -1.8311059 
H     4.3240991   -0.3015251   -4.0745953 
H     2.0412582    0.7058958   -4.2478012 
H     0.7180188    1.1588134   -2.1756193 
H     3.9946955    2.0000806    0.6547677 
H     5.0935444    3.4986174    2.2970816 
H     3.8839363    4.2142082    4.3646211 
H     1.5274649    3.4613292    4.7503234 
H     0.4079621    1.9763389    3.0924613 
