203
Energy =
C     3.3595659    1.2413258   -0.9543955 
C     3.7838375    0.2468232   -0.0432283 
C     3.5168878   -1.1329797   -0.3222739 
H     4.1598797    0.5417871    0.9443366 
Pd    1.6110223   -0.0131959   -0.2134603 
P     0.0503685   -1.7391383   -0.4102366 
P     0.0407111    1.6513488    0.1895001 
H     3.1480668    0.9018779   -1.9810304 
H     3.5212299   -1.4428460   -1.3757519 
C     3.6163779    5.5178709   -0.6764949 
C     3.0421983    4.9013824   -1.7981982 
C     2.9742896    3.5071598   -1.8673302 
C     3.4711589    2.6987106   -0.8176558 
C     4.0394934    3.3358051    0.3091416 
C     4.1099963    4.7302900    0.3764709 
H     3.6824226    6.6092584   -0.6240500 
H     2.6503669    5.5069528   -2.6220837 
H     2.5246822    3.0294235   -2.7431741 
H     4.4351951    2.7396440    1.1359999 
H     4.5510735    5.2073857    1.2571358 
C     4.1209603   -4.3497717    2.4760021 
C     3.9169509   -3.0421260    2.9492860 
C     3.7222580   -1.9900386    2.0498188 
C     3.7280105   -2.2187490    0.6527159 
C     3.9214203   -3.5397122    0.1914026 
C     4.1236317   -4.5907842    1.0943962 
H     4.2760921   -5.1730659    3.1808661 
H     3.9085966   -2.8440255    4.0264300 
H     3.5458353   -0.9802739    2.4352719 
H     3.9107103   -3.7389455   -0.8857901 
H     4.2870463   -5.6044421    0.7150475 
C     0.9076471    0.9944554   -5.0065576 
C    -0.0346671    2.2136941   -5.1112509 
C     0.7557403    3.4108680   -5.6991518 
C    -1.1991311    1.8415819   -6.0633796 
C    -0.5965026    2.6183246   -3.7349391 
C    -0.1332102    2.0430046   -2.5420878 
C    -1.5921206    3.6102251   -3.6303893 
C    -2.1630200    4.0063391   -2.4033648 
C    -3.2365925    5.1119602   -2.3749180 
C    -3.8579966    5.2726449   -0.9711273 
C    -4.3713861    4.7793615   -3.3757008 
C    -2.5689542    6.4520296   -2.7812835 
C    -1.6943033    3.3865576   -1.2312446 
C    -0.6615868    2.4353042   -1.3006159 
C     0.7877505    2.9463063    1.2532253 
C     1.6161439    2.4948576    2.3011800 
C     2.1624424    3.3998227    3.2269594 
C     3.0523185    2.9392252    4.3987468 
C     4.2580980    3.8955535    4.5734635 
C     3.6069033    1.5160662    4.1737130 
C     2.1926090    2.9431667    5.6896512 
C     1.8405150    4.7629263    3.0702678 
C     1.0514002    5.2499759    2.0108598 
C     0.5357730    4.3165172    1.0917880 
C     0.7115923    6.7506566    1.9168494 
C    -0.3631207    7.0615688    2.9922912 
C     1.9650539    7.6196640    2.1843669 
C     0.1495694    7.1234535    0.5272133 
C    -1.3962546    1.0466447    1.1724017 
C    -1.5517186    1.3999115    2.5281144 
C    -2.6273262    0.8873582    3.2621320 
C    -3.5610988    0.0338280    2.6635859 
C    -2.3189992    0.1725347    0.5528761 
C    -3.4156992   -0.3135176    1.3101866 
C    -2.2761873   -0.2109607   -0.8925911 
C    -3.2919708    0.3312936   -1.7216836 
O    -4.1011438    1.2546383   -1.1233515 
C    -5.4622572    1.4088302   -1.5591422 
C    -6.3479617    0.2588542   -1.0774654 
C    -6.3884963    0.0992970    0.4647546 
C    -5.6693961   -1.1485113    0.9807108 
O    -4.2701861   -1.1468658    0.6447009 
C    -3.4007889   -0.0492862   -3.0690963 
C    -2.5037047   -0.9873880   -3.5915128 
C    -1.4898772   -1.5323079   -2.7950363 
C    -1.3641763   -1.1432546   -1.4456142 
C     0.8036953   -3.1277298   -1.3455359 
C     0.7965059   -4.4528124   -0.8793027 
C     1.4527846   -5.4690023   -1.5997713 
C     1.4011086   -6.9364635   -1.1289937 
C     2.7129187   -7.6824804   -1.4713207 
C     0.2176770   -7.6246606   -1.8605480 
C     1.1738813   -7.0347314    0.3972841 
C     2.1132339   -5.1146239   -2.7944669 
C     2.1548336   -3.7920272   -3.2785808 
C     1.4955729   -2.8037146   -2.5270211 
C     2.8710149   -3.3971840   -4.5853819 
C     1.7998763   -2.9602004   -5.6185337 
C     3.6859359   -4.5649627   -5.1790875 
C     3.8384240   -2.2162133   -4.3144403 
C    -0.6889437   -2.4539103    1.0961693 
C    -0.1666147   -2.0779950    2.3473366 
C    -0.6769938   -2.6431267    3.5254089 
C    -0.1482658   -2.2624719    4.9210206 
C    -1.3304252   -1.8763412    5.8448536 
C     0.8226692   -1.0658772    4.8529763 
C     0.6042403   -3.4814481    5.5150410 
C    -1.6895909   -3.6199824    3.4009570 
C    -2.2272088   -4.0194863    2.1644311 
C    -1.7265942   -3.3952378    1.0040049 
C    -3.3185723   -5.1026874    2.0413414 
C    -4.6013373   -4.4647487    1.4546787 
C    -3.6683325   -5.7382360    3.4031939 
C    -2.8206909   -6.2266818    1.0969886 
H     1.2537632    0.6995024   -6.0118728 
H     0.3917794    0.1291676   -4.5547788 
H     1.8065326    1.2156654   -4.4030876 
H     1.1693275    3.1518293   -6.6902352 
H     1.5951073    3.6911841   -5.0379810 
H     0.1098064    4.2976633   -5.8206485 
H    -1.7875225    1.0056328   -5.6481925 
H    -0.8035970    1.5357882   -7.0481882 
H    -1.8823320    2.6920096   -6.2286928 
H     0.6326299    1.2626392   -2.5524033 
H    -1.9474272    4.0900786   -4.5482533 
H    -4.6511858    6.0392964   -0.9997728 
H    -3.1111585    5.5986997   -0.2260224 
H    -4.3058128    4.3274170   -0.6175770 
H    -5.1458757    5.5659587   -3.3468348 
H    -4.0022936    4.7154553   -4.4134859 
H    -4.8469573    3.8165379   -3.1239351 
H    -1.7535145    6.7106616   -2.0834812 
H    -2.1416032    6.3963494   -3.7977091 
H    -3.3104128    7.2709828   -2.7677431 
H    -2.1342191    3.6244894   -0.2604396 
H     1.8230020    1.4220442    2.3819059 
H     3.9452116    4.9203261    4.8345444 
H     4.9108101    3.5342082    5.3871258 
H     4.8596410    3.9462884    3.6482939 
H     4.2665107    1.2337245    5.0118188 
H     2.8049540    0.7627772    4.1197508 
H     4.2026110    1.4590236    3.2448033 
H     1.7901021    3.9505518    5.8943762 
H     1.3401912    2.2477266    5.5919162 
H     2.7974561    2.6303370    6.5598130 
H     2.2329646    5.4780804    3.7986316 
H    -0.0678232    4.6523523    0.2475370 
H     0.0102947    6.8314189    4.0056029 
H    -0.6406062    8.1306683    2.9626051 
H    -1.2737773    6.4609228    2.8204108 
H     2.3663593    7.4702886    3.2010841 
H     1.7086105    8.6890793    2.0875718 
H     2.7672558    7.3903400    1.4631461 
H    -0.8166809    6.6282579    0.3283135 
H    -0.0242191    8.2119154    0.4747469 
H     0.8506227    6.8467536   -0.2796876 
H    -0.8442865    2.0837243    3.0040210 
H    -2.7466847    1.1651232    4.3144965 
H    -4.3963353   -0.3585474    3.2490773 
H    -5.5169863    1.5232279   -2.6572667 
H    -5.7804263    2.3639576   -1.1106249 
H    -6.0009735   -0.6785749   -1.5515172 
H    -7.3643051    0.4465271   -1.4688779 
H    -5.9539300    0.9898546    0.9564880 
H    -7.4356284    0.0328572    0.8118737 
H    -6.0620238   -2.0543781    0.4924256 
H    -5.8145545   -1.2695980    2.0700440 
H    -4.1771437    0.3795186   -3.7075267 
H    -2.5971558   -1.3011214   -4.6364349 
H    -0.8109632   -2.2747124   -3.2212684 
H     0.2874179   -4.6858751    0.0574185 
H     2.8753818   -7.7677989   -2.5592400 
H     2.6747346   -8.7089555   -1.0675902 
H     3.5892452   -7.1732370   -1.0330427 
H    -0.7361984   -7.1237262   -1.6182980 
H     0.3546170   -7.5875857   -2.9556178 
H     0.1396017   -8.6842717   -1.5568878 
H     1.2064950   -8.0926271    0.7102243 
H     0.1899717   -6.6367360    0.6948476 
H     1.9479901   -6.4827319    0.9571916 
H     2.6194495   -5.8972862   -3.3617622 
H     1.5233638   -1.7583772   -2.8572426 
H     1.1024876   -3.7888683   -5.8322204 
H     1.2098143   -2.1040359   -5.2480888 
H     2.2793796   -2.6574949   -6.5666933 
H     4.2000489   -4.2309604   -6.0967259 
H     3.0404407   -5.4172717   -5.4538658 
H     4.4553170   -4.9240976   -4.4728864 
H     4.5904029   -2.4883174   -3.5525815 
H     3.3026279   -1.3157006   -3.9646750 
H     4.3727756   -1.9407400   -5.2406031 
H     0.6343081   -1.3344829    2.3746893 
H    -2.0331559   -2.7147963    5.9881748 
H    -1.8933506   -1.0267660    5.4215503 
H    -0.9541484   -1.5841814    6.8413793 
H     1.7209858   -1.3107652    4.2619680 
H     0.3403104   -0.1800572    4.4028182 
H     1.1568423   -0.7927344    5.8689392 
H     1.4449354   -3.7750798    4.8622685 
H    -0.0641612   -4.3535083    5.6213157 
H     1.0056495   -3.2367451    6.5150621 
H    -2.0701021   -4.0848296    4.3134132 
H    -2.1367477   -3.6454399    0.0199328 
H    -5.3803589   -5.2345192    1.3092926 
H    -4.4066744   -3.9786385    0.4839843 
H    -4.9960837   -3.6995660    2.1442047 
H    -2.7892029   -6.2186394    3.8677388 
H    -4.4390182   -6.5155857    3.2620479 
H    -4.0736049   -4.9940960    4.1114227 
H    -3.5991753   -7.0018519    0.9829558 
H    -2.5783376   -5.8436838    0.0905421 
H    -1.9162630   -6.7084137    1.5068506 
