203
Energy =
C     3.4783556    1.1881188   -0.8227017 
C     3.8325046    0.1747384    0.0972363 
C     3.5361181   -1.1966113   -0.1904769 
H     4.1726136    0.4591556    1.1005090 
Pd    1.6577498   -0.0227274   -0.1703345 
P     0.0719883   -1.7195020   -0.4115635 
P     0.0968552    1.6584671    0.1679481 
H     3.2910350    0.8665030   -1.8598159 
H     3.5671324   -1.5113434   -1.2424981 
C     3.9160317    5.4482831   -0.4938001 
C     4.3588202    4.6287901    0.5566896 
C     4.2266966    3.2393226    0.4741692 
C     3.6444527    2.6388956   -0.6653191 
C     3.1953157    3.4798151   -1.7105069 
C     3.3277222    4.8684567   -1.6276038 
H     4.0319571    6.5348366   -0.4290621 
H     4.8106653    5.0775301    1.4466711 
H     4.5884089    2.6185134    1.2986084 
H     2.7333462    3.0320143   -2.5940110 
H     2.9741348    5.4989796   -2.4500376 
C     3.8040981   -4.4326331    2.6402437 
C     3.7481123   -4.6866435    1.2621329 
C     3.6779985   -3.6281300    0.3481683 
C     3.6542896   -2.2872776    0.7953207 
C     3.7078659   -2.0455782    2.1893551 
C     3.7896449   -3.1043687    3.0982880 
H     3.8617317   -5.2611555    3.3536087 
H     3.7635337   -5.7175788    0.8945938 
H     3.6337523   -3.8367148   -0.7264401 
H     3.6709509   -1.0189965    2.5688994 
H     3.8372127   -2.8943509    4.1719972 
C    -0.4397109    3.1720032   -6.2727127 
C     0.0546215    2.2660497   -5.1253392 
C    -0.3766607    0.8077282   -5.4234484 
C     1.6013761    2.3373568   -5.0853524 
C    -0.5363377    2.6806690   -3.7611559 
C    -0.0586172    2.0868744   -2.5755753 
C    -1.5775254    3.6174427   -3.6381887 
C    -2.1726910    3.9558368   -2.4011587 
C    -3.3082341    4.9963313   -2.3572647 
C    -2.7454807    6.3686513   -2.8100692 
C    -3.8939257    5.1461195   -0.9372280 
C    -4.4477649    4.5650041   -3.3146817 
C    -1.6825415    3.3328045   -1.2442427 
C    -0.6120778    2.4211725   -1.3305665 
C     0.8434937    2.9757343    1.2029105 
C     1.6328095    2.5451331    2.2894888 
C     2.1508055    3.4685170    3.2118915 
C     2.9713715    3.0250360    4.4398175 
C     4.1847291    3.9626050    4.6554855 
C     3.5077128    1.5852654    4.2846651 
C     2.0437749    3.0804603    5.6819146 
C     1.8571601    4.8316572    3.0020276 
C     1.1161081    5.2969039    1.8991887 
C     0.6150666    4.3423368    0.9929154 
C     0.7930372    6.7957346    1.7390877 
C     0.4174132    7.1434026    0.2803910 
C    -0.4140702    7.1187680    2.6595302 
C     1.9980903    7.6743599    2.1530765 
C    -1.3301180    1.0739231    1.1856871 
C    -1.4494193    1.4448943    2.5412485 
C    -2.4892516    0.9260122    3.3203271 
C    -3.4222390    0.0392604    2.7718006 
C    -2.2656961    0.1823367    0.6116018 
C    -3.3175547   -0.3239867    1.4195428 
C    -2.2824727   -0.2172508   -0.8286687 
C    -3.3594248    0.2707151   -1.6121639 
O    -4.1664782    1.1844112   -0.9944159 
C    -5.5537695    1.2789970   -1.3613336 
C    -6.3712530    0.0975458   -0.8357286 
C    -6.3460725   -0.0530309    0.7074217 
C    -5.5469820   -1.2592811    1.2044007 
O    -4.1677591   -1.1979048    0.8016660 
C    -3.5376803   -0.1617556   -2.9364819 
C    -2.6456910   -1.0913844   -3.4812898 
C    -1.5668559   -1.5755529   -2.7326027 
C    -1.3769201   -1.1390428   -1.4060582 
C     0.8011062   -3.0701448   -1.4147359 
C     1.5391357   -2.6752628   -2.5487800 
C     2.1791780   -3.6231000   -3.3605340 
C     3.0260301   -3.2212172   -4.5830985 
C     4.4839943   -3.6987508   -4.3578280 
C     3.0416834   -1.6923440   -4.7996773 
C     2.4448602   -3.8899622   -5.8546839 
C     2.0455286   -4.9819068   -3.0007779 
C     1.3212451   -5.4096786   -1.8720491 
C     0.7032589   -4.4264268   -1.0724105 
C     1.1953090   -6.9139002   -1.5584958 
C     0.5415286   -7.1612845   -0.1819969 
C     2.5929207   -7.5825275   -1.5632601 
C     0.3107421   -7.5654276   -2.6539831 
C    -0.6509060   -2.4628591    1.0878203 
C    -1.7258286   -3.3637731    0.9741978 
C    -2.2670486   -3.9655586    2.1220634 
C    -3.3955636   -5.0123215    2.0509136 
C    -3.9585327   -5.1494791    0.6204815 
C    -4.5538421   -4.6080519    2.9968253 
C    -2.8244261   -6.3834631    2.4973930 
C    -1.7231348   -3.5978355    3.3692241 
C    -0.6777385   -2.6652302    3.5155583 
C    -0.1300508   -2.1125857    2.3443583 
C    -0.1591539   -2.3068576    4.9212956 
C     0.5821040   -3.5390167    5.5017620 
C    -1.3452109   -1.9302095    5.8440322 
C     0.8140858   -1.1105841    4.8783340 
H     0.0290344    2.8586934   -7.2214685 
H    -0.1755271    4.2300736   -6.0983986 
H    -1.5332590    3.1038826   -6.4078589 
H     0.0591230    0.4650334   -6.3793795 
H    -1.4748956    0.7327858   -5.4922743 
H    -0.0478474    0.1208146   -4.6249936 
H     1.9460764    3.3580283   -4.8440591 
H     2.0192168    2.0582922   -6.0685632 
H     2.0266367    1.6406035   -4.3418794 
H     0.7410202    1.3383071   -2.6081150 
H    -1.9572351    4.1025043   -4.5406886 
H    -3.5404207    7.1354296   -2.7877973 
H    -2.3463055    6.3236506   -3.8381955 
H    -1.9293647    6.6968332   -2.1427468 
H    -4.7254554    5.8715768   -0.9514789 
H    -4.2828882    4.1850274   -0.5579656 
H    -3.1407418    5.5198503   -0.2207817 
H    -4.1045321    4.5022745   -4.3614739 
H    -4.8449559    3.5770543   -3.0270959 
H    -5.2745830    5.2963233   -3.2778448 
H    -2.1291250    3.5337058   -0.2679639 
H     1.8228813    1.4727259    2.4078388 
H     3.8793367    5.0023086    4.8603216 
H     4.7781700    3.6179954    5.5202194 
H     4.8430600    3.9669908    3.7687575 
H     4.1161028    1.3156192    5.1646889 
H     2.6952471    0.8451192    4.2085434 
H     4.1505691    1.4903241    3.3910575 
H     1.6514501    4.1004112    5.8382697 
H     1.1835829    2.3990086    5.5559347 
H     2.5941967    2.7794703    6.5915487 
H     2.2325371    5.5621196    3.7235110 
H     0.0365395    4.6593370    0.1235221 
H    -0.5197628    6.6520267   -0.0337722 
H     0.2627511    8.2318691    0.1846941 
H     1.2142180    6.8432827   -0.4220740 
H    -1.2944832    6.5149158    2.3761052 
H    -0.6852212    8.1871185    2.5809214 
H    -0.1764376    6.8995262    3.7153203 
H     2.8957635    7.4195599    1.5644432 
H     1.7626597    8.7390898    1.9816930 
H     2.2465279    7.5646459    3.2223913 
H    -0.7402762    2.1472146    2.9855031 
H    -2.5765433    1.2206773    4.3712532 
H    -4.2223440   -0.3673750    3.3952869 
H    -5.6672087    1.3853610   -2.4559503 
H    -5.8873337    2.2235659   -0.9016605 
H    -6.0072338   -0.8290777   -1.3180921 
H    -7.4089676    0.2425594   -1.1871343 
H    -5.9366470    0.8610092    1.1771923 
H    -7.3748649   -0.1667280    1.0947986 
H    -5.9178082   -2.1915698    0.7483242 
H    -5.6354144   -1.3683010    2.3008129 
H    -4.3672959    0.2173695   -3.5384942 
H    -2.7914996   -1.4417082   -4.5082204 
H    -0.8856796   -2.3058754   -3.1759226 
H     1.6126983   -1.6080939   -2.7811109 
H     4.9103106   -3.2383823   -3.4484955 
H     5.1175301   -3.4170384   -5.2175919 
H     4.5406075   -4.7946633   -4.2416233 
H     2.0291016   -1.2916806   -4.9810923 
H     3.4767370   -1.1594566   -3.9342841 
H     3.6597053   -1.4482289   -5.6805767 
H     3.0472651   -3.6174423   -6.7394179 
H     1.4049212   -3.5619240   -6.0291517 
H     2.4457120   -4.9904650   -5.7735932 
H     2.5340094   -5.7367972   -3.6253242 
H     0.1546065   -4.7103122   -0.1730027 
H     1.1140518   -6.6845646    0.6333938 
H    -0.4933604   -6.7783001   -0.1461444 
H     0.4993968   -8.2452968    0.0203087 
H     2.4991521   -8.6569088   -1.3265192 
H     3.2555443   -7.1213992   -0.8106923 
H     3.0879887   -7.5023408   -2.5459059 
H     0.7555735   -7.4405113   -3.6566961 
H    -0.6945153   -7.1086761   -2.6679834 
H     0.1976584   -8.6476852   -2.4630330 
H    -2.1365247   -3.5769597   -0.0154301 
H    -3.1939028   -5.5166305   -0.0869581 
H    -4.3403499   -4.1841940    0.2441889 
H    -4.7900673   -5.8751438    0.6140838 
H    -4.2289250   -4.5587201    4.0500710 
H    -4.9588742   -3.6208607    2.7192689 
H    -5.3712342   -5.3481979    2.9355537 
H    -2.4399328   -6.3419620    3.5313767 
H    -1.9947078   -6.6957898    1.8396761 
H    -3.6101836   -7.1590622    2.4567151 
H    -2.1385052   -4.0569279    4.2721118 
H     0.6933813   -1.3946542    2.3874385 
H     0.9795816   -3.3122938    6.5076317 
H     1.4233172   -3.8295430    4.8490394 
H    -0.0944675   -4.4069496    5.5906079 
H    -1.9064398   -1.0759741    5.4280324 
H    -0.9720128   -1.6485538    6.8446732 
H    -2.0489479   -2.7693286    5.9778740 
H     1.1379235   -0.8511336    5.9012635 
H     1.7180422   -1.3465771    4.2931087 
H     0.3349291   -0.2196203    4.4350233 
