203
Energy =
C     3.5317764    1.2329487   -0.7373694 
C     3.8689327    0.1064963    0.0445900 
C     3.5241510   -1.2166160   -0.3701493 
H     4.2424760    0.2697820    1.0638681 
Pd    1.6767704    0.0085992   -0.2054432 
P     0.0774103   -1.6666217   -0.4795237 
P     0.0829106    1.6676646    0.1754706 
H     3.2792018    1.0591660   -1.7960273 
H     3.5240125   -1.4252516   -1.4482006 
C     4.4329006    5.3272832    0.2109163 
C     3.4398642    5.0145926   -0.7305120 
C     3.1563339    3.6804373   -1.0362439 
C     3.8472018    2.6287615   -0.3919395 
C     4.8504277    2.9573974    0.5475783 
C     5.1426672    4.2938079    0.8408074 
H     4.6610282    6.3718047    0.4458003 
H     2.8807664    5.8144909   -1.2270289 
H     2.3732065    3.4433652   -1.7639627 
H     5.4345235    2.1631599    1.0229843 
H     5.9389809    4.5310437    1.5537274 
C     4.0391028   -4.6934302    2.1197318 
C     3.8538647   -3.4318302    2.7107188 
C     3.6787964   -2.2983513    1.9116374 
C     3.6872993   -2.3974923    0.5000244 
C     3.8619529   -3.6731306   -0.0797095 
C     4.0438470   -4.8062736    0.7219803 
H     4.1783305   -5.5801790    2.7466752 
H     3.8470358   -3.3326887    3.8013446 
H     3.5205975   -1.3242494    2.3878777 
H     3.8563289   -3.7728181   -1.1697688 
H     4.1947721   -5.7816784    0.2483879 
C     1.8734912    2.7002241   -4.8843767 
C     0.3538198    2.4491873   -5.0626073 
C    -0.1479387    3.3117178   -6.2387544 
C     0.1158474    0.9558630   -5.4041942 
C    -0.3788688    2.7750804   -3.7464573 
C     0.0418089    2.1587568   -2.5518590 
C    -1.4696932    3.6570877   -3.6673629 
C    -2.1623604    3.9210191   -2.4623328 
C    -3.3484968    4.9042630   -2.4630543 
C    -4.3999343    4.4467826   -3.5054689 
C    -2.8271129    6.3159502   -2.8377387 
C    -4.0304985    4.9819948   -1.0809831 
C    -1.7208791    3.2819586   -1.2944147 
C    -0.6045276    2.4231784   -1.3368662 
C     0.7673821    3.0132385    1.2152994 
C     0.3929809    4.3590485    1.0738125 
C     0.8767076    5.3285039    1.9694485 
C     0.4768659    6.8139051    1.8662479 
C     1.7484272    7.6930504    1.7574209 
C    -0.3168260    7.2060169    3.1395857 
C    -0.4084073    7.0894082    0.6322597 
C     1.7333434    4.9010176    3.0043723 
C     2.1406709    3.5619642    3.1630308 
C     1.6529155    2.6243888    2.2365220 
C     3.0209962    3.1361716    4.3547503 
C     4.1200570    4.1879514    4.6377185 
C     2.1005503    3.0044672    5.5972382 
C     3.7107313    1.7769394    4.0992331 
C    -1.3582164    1.0629570    1.1584347 
C    -1.4780570    1.4074742    2.5206068 
C    -2.5305664    0.8896016    3.2825262 
C    -3.4705923    0.0251905    2.7107505 
C    -2.2997447    0.1931032    0.5600210 
C    -3.3607406   -0.3171842    1.3533616 
C    -2.2959234   -0.1786486   -0.8880737 
C    -3.3589170    0.3231101   -1.6834922 
O    -4.2051364    1.1954619   -1.0567574 
C    -5.5863994    1.2667800   -1.4541073 
C    -6.3944256    0.0748220   -0.9400208 
C    -6.3969612   -0.0648405    0.6040726 
C    -5.5887687   -1.2563212    1.1190480 
O    -4.2088098   -1.1817473    0.7197468 
C    -3.4785709   -0.0395803   -3.0348558 
C    -2.5467677   -0.9181849   -3.5970241 
C    -1.4922250   -1.4290850   -2.8324063 
C    -1.3581635   -1.0609900   -1.4785267 
C     0.7495596   -3.0815822   -1.4383766 
C     1.5096370   -2.7856076   -2.5911401 
C     2.0807969   -3.8100366   -3.3581638 
C     2.9392305   -3.5262046   -4.6061185 
C     2.2837543   -4.1972023   -5.8402950 
C     4.3592720   -4.1093404   -4.3873314 
C     3.0735210   -2.0144238   -4.8869314 
C     1.8627672   -5.1449283   -2.9403975 
C     1.1119742   -5.4719208   -1.7998118 
C     0.5666577   -4.4113772   -1.0443026 
C     0.8103257   -6.9256487   -1.3837158 
C     1.6858623   -7.9413950   -2.1470572 
C    -0.6822124   -7.2081079   -1.7039669 
C     1.0464504   -7.1208575    0.1349372 
C    -0.6475608   -2.3636755    1.0415268 
C    -0.0807397   -2.0290975    2.2816950 
C    -0.5944799   -2.5805114    3.4681277 
C    -0.0182080   -2.2360745    4.8549330 
C     0.9927044   -1.0723041    4.7778998 
C     0.7002454   -3.4896631    5.4173323 
C    -1.1622944   -1.8182747    5.8124202 
C    -1.6571499   -3.4982442    3.3528055 
C    -2.2499728   -3.8476792    2.1222236 
C    -1.7411157   -3.2450243    0.9602112 
C    -3.3875720   -4.8859410    2.0772575 
C    -4.4984772   -4.5016541    3.0858294 
C    -2.8010686   -6.2704722    2.4585138 
C    -4.0163166   -4.9853822    0.6711134 
H     2.4077833    2.4909747   -5.8278547 
H     2.3095192    2.0490032   -4.1063268 
H     2.0711822    3.7486896   -4.6006026 
H     0.4134994    3.0559848   -7.1538587 
H    -0.0019794    4.3889968   -6.0446721 
H    -1.2181347    3.1370089   -6.4467731 
H     0.4549366    0.2959839   -4.5869950 
H     0.6641910    0.6785579   -6.3224737 
H    -0.9578010    0.7594203   -5.5647978 
H     0.8767574    1.4488605   -2.5564502 
H    -1.8088947    4.1582696   -4.5773041 
H    -5.2662075    5.1319527   -3.5009169 
H    -4.7596961    3.4299980   -3.2741455 
H    -3.9877564    4.4367224   -4.5289350 
H    -3.6595243    7.0421811   -2.8457804 
H    -2.0743402    6.6607445   -2.1072194 
H    -2.3605133    6.3241155   -3.8380771 
H    -4.3846014    3.9908215   -0.7500868 
H    -3.3458316    5.3769147   -0.3099659 
H    -4.8992167    5.6608048   -1.1311173 
H    -2.2420765    3.4269381   -0.3458511 
H    -0.2707180    4.6454265    0.2566711 
H     2.3185411    7.4435796    0.8466815 
H     1.4695201    8.7606539    1.7095759 
H     2.4174557    7.5588628    2.6246530 
H    -0.6215525    8.2667343    3.0898601 
H    -1.2264622    6.5879872    3.2391715 
H     0.2884568    7.0708156    4.0525632 
H     0.1056544    6.8192919   -0.3074474 
H    -1.3602827    6.5316852    0.6776994 
H    -0.6555316    8.1637539    0.5835603 
H     2.0991449    5.6459965    3.7171329 
H     1.9435704    1.5706329    2.3053408 
H     3.6974255    5.1604636    4.9417604 
H     4.7683249    3.8421661    5.4616122 
H     4.7475506    4.3502857    3.7451618 
H     1.6017520    3.9632441    5.8224484 
H     2.6874316    2.7033196    6.4838437 
H     1.3180559    2.2440113    5.4256828 
H     4.3243403    1.8106582    3.1822987 
H     4.3737940    1.5294183    4.9457617 
H     2.9832517    0.9533424    4.0030925 
H    -0.7592644    2.0896497    2.9811731 
H    -2.6229764    1.1666409    4.3376708 
H    -4.2790283   -0.3832317    3.3220774 
H    -5.6793991    1.3660804   -2.5508873 
H    -5.9459812    2.2075872   -1.0067025 
H    -6.0040989   -0.8475951   -1.4095536 
H    -7.4269892    0.2005253   -1.3133643 
H    -6.0081485    0.8575389    1.0749566 
H    -7.4306501   -0.1909423    0.9741408 
H    -5.9477380   -2.1975623    0.6720633 
H    -5.6805681   -1.3546415    2.2158944 
H    -4.2912717    0.3595896   -3.6467572 
H    -2.6452727   -1.2107747   -4.6473953 
H    -0.7862263   -2.1280154   -3.2869906 
H     1.6532627   -1.7378707   -2.8721933 
H     2.2004268   -5.2902267   -5.7138344 
H     2.8885040   -4.0076532   -6.7449108 
H     1.2693316   -3.7956603   -6.0113466 
H     4.8469297   -3.6397538   -3.5143154 
H     4.3325028   -5.1992071   -4.2169303 
H     4.9903700   -3.9223551   -5.2742419 
H     3.6989177   -1.8572733   -5.7823645 
H     3.5590022   -1.4828328   -4.0480681 
H     2.0940594   -1.5422718   -5.0773245 
H     2.3024947   -5.9506175   -3.5334519 
H    -0.0026815   -4.6293495   -0.1381733 
H     1.4912249   -7.9210046   -3.2335794 
H     2.7616333   -7.7517498   -1.9823689 
H     1.4644238   -8.9630529   -1.7936295 
H    -0.9470327   -8.2427770   -1.4211396 
H    -0.8851252   -7.0792989   -2.7814369 
H    -1.3444223   -6.5210537   -1.1479983 
H     0.4016124   -6.4655048    0.7450173 
H     2.0935023   -6.9078905    0.4060206 
H     0.8200276   -8.1640464    0.4171995 
H     0.7541521   -1.3236203    2.2997912 
H     0.5330130   -0.1684519    4.3401709 
H     1.8752083   -1.3405096    4.1728328 
H     1.3505091   -0.8163816    5.7901305 
H    -0.0005918   -4.3346717    5.5335364 
H     1.5092766   -3.8115370    4.7389976 
H     1.1382660   -3.2718635    6.4081284 
H    -1.8926606   -2.6314453    5.9631515 
H    -1.7030983   -0.9430399    5.4138808 
H    -0.7510885   -1.5535332    6.8027161 
H    -2.0454385   -3.9601718    4.2663032 
H    -2.1888480   -3.4461133   -0.0156022 
H    -5.3238309   -5.2339843    3.0406142 
H    -4.9078098   -3.5038091    2.8550894 
H    -4.1266656   -4.4847601    4.1244533 
H    -2.0088292   -6.5682400    1.7491683 
H    -3.5911864   -7.0424199    2.4380766 
H    -2.3625245   -6.2571860    3.4715705 
H    -4.8602970   -5.6962548    0.6884540 
H    -4.3938081   -4.0064379    0.3292133 
H    -3.2912442   -5.3528533   -0.0760859 
