203
Energy =
C     2.4074745    1.4429434    2.4986725 
C     1.1999918    1.8533436    3.1541054 
C     0.3105981    0.8792099    3.6624418 
H     0.8844787    2.9032554    3.1098067 
Pd    0.6626351    0.6085449    1.4281481 
P    -1.5111766    0.2168581    0.6911069 
P     1.6722480   -0.3794485   -0.4245650 
H     2.8945375    0.5307490    2.8687775 
H     0.7322427   -0.1246875    3.8320831 
C     5.0153221    4.0711825    0.2964374 
C     3.6706356    4.4276955    0.4956722 
C     2.8156539    3.5837494    1.2108263 
C     3.2852879    2.3616354    1.7491679 
C     4.6368973    2.0116062    1.5325873 
C     5.4921093    2.8606621    0.8201808 
H     5.6841841    4.7337959   -0.2624423 
H     3.2874225    5.3695365    0.0888294 
H     1.7661265    3.8687840    1.3393174 
H     5.0158453    1.0626321    1.9258045 
H     6.5393645    2.5749329    0.6790852 
C    -3.5421092    1.3585029    5.4952188 
C    -2.9831957    0.0846197    5.3140690 
C    -1.7247709   -0.0449057    4.7201848 
C    -1.0002518    1.0913925    4.2884129 
C    -1.5809508    2.3672986    4.4712802 
C    -2.8382470    2.4965433    5.0684509 
H    -4.5220739    1.4650873    5.9711351 
H    -3.5262961   -0.8089817    5.6388811 
H    -1.2922542   -1.0401752    4.5791608 
H    -1.0457862    3.2655087    4.1513213 
H    -3.2744472    3.4915720    5.2004285 
C    -6.5149887    0.6901398    2.8783556 
C    -6.2312683    2.1652978    2.5183322 
C    -7.1103086    2.5629027    1.3028256 
C    -6.6145337    3.0455256    3.7331380 
C    -4.7568047    2.3825862    2.1244591 
C    -3.9230235    1.3076752    1.7623527 
C    -4.2223900    3.6830644    2.0510767 
C    -2.8916378    3.9481306    1.6699962 
C    -2.3663761    5.3971119    1.6320653 
C    -0.8243107    5.4481146    1.5790296 
C    -2.8236125    6.1733177    2.8919092 
C    -2.9336233    6.0840241    0.3623995 
C    -2.0932728    2.8526927    1.2999812 
C    -2.6123897    1.5419501    1.3216470 
C    -2.2143275   -1.4037218    1.1456291 
C    -3.4687221   -1.8283824    0.6735497 
C    -3.9994195   -3.0616096    1.0908351 
C    -5.3982459   -3.5427190    0.6584432 
C    -5.3106965   -4.9779284    0.0817532 
C    -6.0133259   -2.6228950   -0.4177541 
C    -6.3234925   -3.5432515    1.9034705 
C    -3.2185172   -3.8538864    1.9572546 
C    -1.9348772   -3.4787734    2.4015436 
C    -1.4481251   -2.2301127    1.9847340 
C    -1.1261752   -4.4060874    3.3288531 
C    -1.8350959   -4.4727519    4.7061769 
C    -1.0501555   -5.8266190    2.7146517 
C     0.3163543   -3.8940652    3.5329133 
C    -1.6777604    0.3432611   -1.1417667 
C    -2.2967967    1.4594729   -1.7397894 
C    -2.3538627    1.5608750   -3.1344427 
C    -1.8085446    0.5615890   -3.9484173 
C    -1.1133106   -0.6736974   -1.9466709 
C    -1.2004447   -0.5582230   -3.3576091 
C    -0.4864788   -1.9182254   -1.4029650 
C    -1.1961661   -3.1305058   -1.6005880 
O    -2.4351195   -2.9992836   -2.1617051 
C    -2.9613055   -4.0499953   -2.9907425 
C    -2.2943753   -4.0770584   -4.3671608 
C    -2.4655829   -2.7641564   -5.1748424 
C    -1.1749693   -1.9597633   -5.3396074 
O    -0.6183342   -1.5688771   -4.0714691 
C    -0.6480514   -4.3582261   -1.1943025 
C     0.6198876   -4.3832798   -0.6027970 
C     1.3401459   -3.2005412   -0.3990149 
C     0.7911470   -1.9636520   -0.7932187 
C     1.7188315    0.5350814   -1.9999110 
C     1.3942396    1.9005192   -2.0089354 
C     1.4718599    2.6382948   -3.2034921 
C     1.1215289    4.1368663   -3.2699433 
C     0.4289154    4.6137352   -1.9763890 
C     0.1638216    4.4067385   -4.4570309 
C     2.4338828    4.9404838   -3.4618515 
C     1.9195362    1.9654343   -4.3572472 
C     2.2475023    0.5942345   -4.3775189 
C     2.1196026   -0.1227732   -3.1773253 
C     2.7606835   -0.0601008   -5.6744175 
C     4.1523801    0.5384870   -6.0077042 
C     1.7803031    0.2315735   -6.8375950 
C     2.9024774   -1.5898791   -5.5264803 
C     3.4082039   -0.8504372   -0.0558538 
C     3.6748510   -1.4487739    1.1952955 
C     4.9849685   -1.7736269    1.5719641 
C     5.3185992   -2.3926626    2.9431605 
C     6.0684353   -3.7331978    2.7361023 
C     4.0504306   -2.6700523    3.7780724 
C     6.2190486   -1.4063844    3.7314171 
C     6.0249258   -1.4866071    0.6549605 
C     5.7918975   -0.8982273   -0.5983999 
C     4.4605245   -0.5714230   -0.9348440 
C     6.9084968   -0.6525407   -1.6327191 
C     6.8149343    0.7849253   -2.2034193 
C     6.7156113   -1.6703374   -2.7890053 
C     8.3142984   -0.8464425   -1.0273875 
H    -7.5608432    0.5824735    3.2134780 
H    -5.8546111    0.3382641    3.6903435 
H    -6.3793849    0.0215674    2.0105486 
H    -8.1806899    2.4227454    1.5384359 
H    -6.8641738    1.9431704    0.4224468 
H    -6.9543880    3.6210914    1.0287902 
H    -5.9754049    2.8196806    4.6031004 
H    -7.6645781    2.8574328    4.0173598 
H    -6.5235389    4.1225566    3.5122575 
H    -4.2921810    0.2826425    1.8170746 
H    -4.8669089    4.5263563    2.3143206 
H    -0.4831525    6.4973474    1.5890295 
H    -0.4256473    4.9820816    0.6639490 
H    -0.3754300    4.9417098    2.4524779 
H    -2.4099006    7.1966667    2.8751541 
H    -3.9210676    6.2640475    2.9520393 
H    -2.4701571    5.6754049    3.8124084 
H    -2.5973349    5.5576568   -0.5485001 
H    -4.0375044    6.0818537    0.3704998 
H    -2.5915815    7.1330457    0.3027626 
H    -1.0553022    3.0010057    0.9827399 
H    -4.0136276   -1.1958352   -0.0304796 
H    -4.9394317   -5.7012492    0.8276035 
H    -6.3095503   -5.3189955   -0.2430006 
H    -4.6341929   -5.0092831   -0.7887808 
H    -6.9925658   -3.0214860   -0.7339633 
H    -6.1812842   -1.6000268   -0.0367057 
H    -5.3646563   -2.5556190   -1.3086800 
H    -5.9415560   -4.2193938    2.6881838 
H    -6.3993616   -2.5301059    2.3354290 
H    -7.3389882   -3.8801678    1.6281907 
H    -3.6254874   -4.8135161    2.2925147 
H    -0.4555288   -1.8830980    2.2846971 
H    -2.8632694   -4.8628797    4.6101228 
H    -1.2812865   -5.1361799    5.3943862 
H    -1.8946584   -3.4705446    5.1668123 
H    -2.0496735   -6.2794259    2.5998109 
H    -0.4564275   -6.4920172    3.3661726 
H    -0.5728127   -5.7944748    1.7203799 
H     0.3410918   -2.9144702    4.0433514 
H     0.8800611   -4.6032904    4.1630139 
H     0.8467297   -3.7947199    2.5695612 
H    -2.7437346    2.2400305   -1.1190312 
H    -2.8365036    2.4288184   -3.5955064 
H    -1.8526434    0.6580525   -5.0360684 
H    -4.0340111   -3.8118655   -3.0774249 
H    -2.8787955   -5.0309167   -2.4882060 
H    -2.7309127   -4.9267495   -4.9228809 
H    -1.2211687   -4.3103699   -4.2349822 
H    -2.8387592   -2.9876630   -6.1907751 
H    -3.2262603   -2.1164497   -4.6998266 
H    -1.3367601   -1.0807580   -5.9894737 
H    -0.3843734   -2.5721497   -5.8031212 
H    -1.2040219   -5.2884362   -1.3350199 
H     1.0553813   -5.3410445   -0.2995356 
H     2.3365483   -3.2438202    0.0478067 
H     1.0746763    2.3675818   -1.0736126 
H    -0.4898731    4.0340581   -1.7757916 
H     0.1484916    5.6774058   -2.0682093 
H     1.0962759    4.5209035   -1.1035128 
H     0.6245025    4.1546136   -5.4273469 
H    -0.7614206    3.8139998   -4.3533536 
H    -0.1088399    5.4764826   -4.4883204 
H     2.2205684    6.0238775   -3.5061274 
H     2.9441033    4.6547842   -4.3982785 
H     3.1296886    4.7542163   -2.6250557 
H     2.0147115    2.5358869   -5.2868362 
H     2.3244991   -1.1950395   -3.1415958 
H     4.0972375    1.6314337   -6.1532171 
H     4.8689470    0.3401710   -5.1910589 
H     4.5522108    0.0902297   -6.9348874 
H     2.1355329   -0.2500127   -7.7657864 
H     1.6869817    1.3123923   -7.0387807 
H     0.7749692   -0.1594227   -6.6069821 
H     1.9456852   -2.0555890   -5.2339044 
H     3.6609435   -1.8590968   -4.7704545 
H     3.2231758   -2.0299294   -6.4864129 
H     2.8394696   -1.6427780    1.8750181 
H     7.0134288   -3.5925101    2.1842999 
H     5.4454729   -4.4469569    2.1687821 
H     6.3142679   -4.1877677    3.7122455 
H     3.4884091   -1.7431985    3.9944478 
H     3.3710164   -3.3758843    3.2693383 
H     4.3332713   -3.1163901    4.7467652 
H     5.6981343   -0.4463716    3.8978767 
H     7.1590070   -1.1944312    3.1935187 
H     6.4813236   -1.8300234    4.7172067 
H     7.0500619   -1.7340766    0.9413780 
H     4.2472960   -0.0899491   -1.8917465 
H     7.6147195    0.9452322   -2.9477681 
H     6.9293059    1.5374164   -1.4056592 
H     5.8509648    0.9718046   -2.7067309 
H     6.7791805   -2.7072502   -2.4155900 
H     7.4953931   -1.5296011   -3.5589332 
H     5.7309410   -1.5418896   -3.2720852 
H     9.0812125   -0.6312418   -1.7911803 
H     8.4854446   -0.1648482   -0.1751068 
H     8.4758814   -1.8827256   -0.6824433 
