203
Energy =
C     2.3785762    1.4713714    2.4284855 
C     1.1839094    1.9623779    3.0489320 
C     0.2391320    1.0579554    3.5840026 
H     0.9188879    3.0227932    2.9564551 
Pd    0.6150284    0.6634535    1.3685867 
P    -1.5545573    0.3114173    0.5869210 
P     1.6595106   -0.4569687   -0.3879739 
H     2.8199556    0.5529912    2.8375386 
H     0.6035686    0.0412952    3.8018173 
C     5.0840401    3.8628527    0.0784982 
C     5.4960423    2.6370203    0.6208341 
C     4.6152423    1.8715923    1.3950637 
C     3.2965358    2.3162862    1.6412265 
C     2.8929188    3.5539134    1.0845183 
C     3.7770921    4.3194363    0.3191889 
H     5.7745460    4.4606119   -0.5252912 
H     6.5130587    2.2738588    0.4429084 
H     4.9455809    0.9133017    1.8105149 
H     1.8707088    3.9144285    1.2380716 
H     3.4450259    5.2763051   -0.0972169 
C    -3.5634878    1.8614670    5.4073387 
C    -3.0970872    0.5455288    5.2654469 
C    -1.8579002    0.3065799    4.6648412 
C    -1.0595861    1.3745839    4.1904841 
C    -1.5518978    2.6925841    4.3265481 
C    -2.7908427    2.9309534    4.9278262 
H    -4.5237321    2.0557929    5.8955594 
H    -3.6980679   -0.2951618    5.6272755 
H    -1.4976625   -0.7210869    4.5538902 
H    -0.9585488    3.5395483    3.9715478 
H    -3.1556246    3.9579210    5.0278098 
C    -0.6504082    5.5285405    1.3388684 
C    -2.1928145    5.5483022    1.3801472 
C    -2.6245228    6.3601937    2.6265167 
C    -2.7152786    6.2479011    0.0977447 
C    -2.7884549    4.1268290    1.4257763 
C    -2.0337307    2.9857212    1.1164673 
C    -4.1520453    3.9428653    1.7454554 
C    -4.7636081    2.6789391    1.7885379 
C    -6.2687701    2.4964350    2.0683500 
C    -6.4948520    1.3827152    3.1195310 
C    -6.9523182    2.0917425    0.7348010 
C    -6.9269266    3.7918538    2.5882943 
C    -3.9693055    1.5521719    1.4864512 
C    -2.6239488    1.7022715    1.1303655 
C    -2.3103140   -1.2685053    1.1070816 
C    -1.5601193   -2.0580738    2.0000233 
C    -2.0684374   -3.2643904    2.4964950 
C    -1.2694399   -4.1519751    3.4691757 
C     0.1694435   -3.6286792    3.6667632 
C    -1.1852695   -5.5936879    2.9071626 
C    -1.9891958   -4.1688198    4.8421281 
C    -3.3681756   -3.6404670    2.0902453 
C    -4.1376709   -2.8855754    1.1871028 
C    -3.5738450   -1.6976682    0.6735554 
C    -5.5591758   -3.3035922    0.7585673 
C    -6.5465910   -2.1558512    1.0899041 
C    -5.5721920   -3.5736532   -0.7657987 
C    -6.0394045   -4.5777349    1.4844061 
C    -1.6516149    0.3750274   -1.2541269 
C    -2.2157748    1.4905275   -1.9062949 
C    -2.2032653    1.5617238   -3.3039178 
C    -1.6352253    0.5368965   -4.0691643 
C    -1.0724710   -0.6714669   -2.0094341 
C    -1.0791777   -0.5805609   -3.4251094 
C    -0.5193273   -1.9286455   -1.4170977 
C    -1.2638196   -3.1164892   -1.6355834 
O    -2.4624245   -2.9518783   -2.2709637 
C    -2.9639180   -3.9965799   -3.1243731 
C    -2.1957462   -4.0773883   -4.4441985 
C    -2.2744202   -2.7827994   -5.2940041 
C    -0.9556080   -2.0140406   -5.3813131 
O    -0.4778007   -1.6159485   -4.0843419 
C    -0.7844233   -4.3577661   -1.1857779 
C     0.4533098   -4.4226311   -0.5367722 
C     1.2110738   -3.2660899   -0.3204822 
C     0.7286407   -2.0141435   -0.7537335 
C     1.8432130    0.4048889   -1.9839407 
C     1.5338257    1.7730986   -2.0536793 
C     1.6840547    2.4723523   -3.2641194 
C     1.3547543    3.9710088   -3.4002507 
C     0.4487629    4.2058091   -4.6344831 
C     2.6833532    4.7524292   -3.5712953 
C     0.6183704    4.5044811   -2.1541739 
C     2.1847893    1.7587441   -4.3702178 
C     2.5026566    0.3860520   -4.3298902 
C     2.3042967   -0.2924980   -3.1160704 
C     3.0688807   -0.3084081   -5.5837077 
C     2.1177564   -0.0814470   -6.7852818 
C     3.2360480   -1.8274760   -5.3697062 
C     4.4557869    0.3049256   -5.9086383 
C     3.3334317   -1.0133374    0.1210571 
C     4.4788600   -0.8026755   -0.6660413 
C     5.7435731   -1.2179254   -0.2114435 
C     7.0101860   -1.0581616   -1.0755850 
C     7.4214116   -2.4639289   -1.5884265 
C     8.1689499   -0.4606516   -0.2392732 
C     6.7626145   -0.1392034   -2.2912145 
C     5.8251629   -1.8336609    1.0557810 
C     4.7003222   -2.0408731    1.8766616 
C     3.4519132   -1.6158334    1.3858411 
C     4.7822829   -2.7313285    3.2523348 
C     4.0142052   -1.8963951    4.3086871 
C     6.2389970   -2.8982414    3.7332960 
C     4.1323093   -4.1343970    3.1298707 
H    -0.2620725    6.5612129    1.3308212 
H    -0.2671360    5.0254758    0.4370427 
H    -0.2314247    5.0214147    2.2263674 
H    -2.1780162    7.3692807    2.5920854 
H    -2.2858981    5.8679961    3.5551354 
H    -3.7185283    6.4862162    2.6852274 
H    -2.3982065    5.6947519   -0.8040796 
H    -2.3204178    7.2776841    0.0299138 
H    -3.8178088    6.3018681    0.0954207 
H    -0.9735471    3.0711432    0.8534844 
H    -4.7543227    4.8257241    1.9697572 
H    -7.5766984    1.2338930    3.2830399 
H    -6.0319607    1.6534329    4.0822624 
H    -6.0702208    0.4168145    2.8002335 
H    -8.0370795    1.9466724    0.8863782 
H    -6.8100141    2.8733769   -0.0319142 
H    -6.5329524    1.1495676    0.3412547 
H    -6.4441378    4.1459873    3.5165308 
H    -6.8871316    4.6049252    1.8425019 
H    -7.9912104    3.6034135    2.8111219 
H    -4.4096600    0.5528293    1.5183784 
H    -0.5618908   -1.7088918    2.2783105 
H     0.1850121   -2.6276218    4.1342204 
H     0.7300459   -4.3085579    4.3306912 
H     0.7079694   -3.5704809    2.7046432 
H    -0.6010938   -6.2359836    3.5898899 
H    -2.1841930   -6.0483759    2.7942577 
H    -0.6943349   -5.5960707    1.9190127 
H    -2.0562574   -3.1499326    5.2634821 
H    -3.0146133   -4.5677845    4.7548677 
H    -1.4374930   -4.8028761    5.5590532 
H    -3.7871118   -4.5658157    2.4927430 
H    -4.1170732   -1.1067806   -0.0708172 
H    -6.2918413   -1.2277431    0.5504554 
H    -7.5739721   -2.4387815    0.7997194 
H    -6.5425965   -1.9351728    2.1714890 
H    -5.2214692   -2.6977813   -1.3374346 
H    -6.5948707   -3.8207262   -1.1025265 
H    -4.9134217   -4.4242863   -1.0090640 
H    -6.0660837   -4.4390467    2.5796650 
H    -7.0622883   -4.8279483    1.1542687 
H    -5.3957652   -5.4462201    1.2585046 
H    -2.6732154    2.2950011   -1.3247779 
H    -2.6467015    2.4278529   -3.8059242 
H    -1.6219623    0.6117909   -5.1593263 
H    -4.0145335   -3.7175932   -3.3016730 
H    -2.9632774   -4.9699985   -2.6001468 
H    -2.6135628   -4.9301492   -5.0095010 
H    -1.1416686   -4.3338783   -4.2280893 
H    -2.5777785   -3.0230866   -6.3292073 
H    -3.0514186   -2.1059301   -4.8917418 
H    -1.0493761   -1.1426094   -6.0544550 
H    -0.1513439   -2.6545090   -5.7785131 
H    -1.3684263   -5.2680779   -1.3421981 
H     0.8379001   -5.3915191   -0.2015663 
H     2.1862648   -3.3444114    0.1657605 
H     1.1660438    2.2715901   -1.1527925 
H     0.9442040    3.9092823   -5.5746860 
H     0.1930768    5.2769326   -4.7184288 
H    -0.4881041    3.6296624   -4.5449344 
H     3.3465981    4.5857663   -2.7048378 
H     3.2227981    4.4300369   -4.4790026 
H     2.4854887    5.8361007   -3.6590383 
H     0.3617727    5.5689617   -2.2941972 
H     1.2484757    4.4305294   -1.2524491 
H    -0.3182038    3.9480874   -1.9711988 
H     2.3322410    2.2977947   -5.3117057 
H     2.4971106   -1.3647451   -3.0361707 
H     1.1143084   -0.4837869   -6.5706027 
H     2.0100083    0.9894347   -7.0282235 
H     2.5106247   -0.5893085   -7.6839096 
H     3.6094143   -2.2968579   -6.2961581 
H     2.2765426   -2.3048650   -5.1045930 
H     3.9641714   -2.0495152   -4.5692107 
H     5.1565828    0.1591912   -5.0686192 
H     4.3825100    1.3888540   -6.1043495 
H     4.8861816   -0.1743815   -6.8060925 
H     4.3770914   -0.3014276   -1.6295016 
H     6.6140733   -2.9102139   -2.1956023 
H     7.6355791   -3.1493483   -0.7497573 
H     8.3290196   -2.3945649   -2.2146322 
H     7.8956494    0.5271566    0.1700569 
H     8.4519246   -1.1117704    0.6050814 
H     9.0644730   -0.3340428   -0.8724924 
H     6.4177621    0.8629704   -1.9807697 
H     6.0103357   -0.5640496   -2.9781209 
H     7.6986845   -0.0172424   -2.8627217 
H     6.8047131   -2.1594128    1.4125301 
H     2.5514490   -1.7492112    1.9968910 
H     4.0915745   -2.3746921    5.3007489 
H     2.9392558   -1.8130302    4.0692159 
H     4.4314817   -0.8766442    4.3858559 
H     6.8209062   -3.5538361    3.0624040 
H     6.2487037   -3.3615360    4.7348162 
H     6.7565136   -1.9252971    3.8047697 
H     4.1564933   -4.6577187    4.1026624 
H     3.0791221   -4.0608424    2.8085888 
H     4.6724649   -4.7516020    2.3909723 
