203
Energy =
C     2.4670329    1.3411959    2.4781761 
C     1.3274331    1.9916110    3.0432023 
C     0.2567085    1.2522524    3.5921704 
H     1.1962053    3.0714563    2.8939182 
Pd    0.6333770    0.6746708    1.4124158 
P    -1.5309274    0.3189154    0.6147839 
P     1.6253549   -0.4881081   -0.3496111 
H     2.7847848    0.3919451    2.9298366 
H     0.4493865    0.1994133    3.8546621 
C     5.5713144    3.4321774    0.3469171 
C     5.8476789    2.2336543    1.0204435 
C     4.8299040    1.5546220    1.7011243 
C     3.5149954    2.0672604    1.7343001 
C     3.2483963    3.2741368    1.0453157 
C     4.2640033    3.9483031    0.3614188 
H     6.3663601    3.9617480   -0.1881201 
H     6.8618967    1.8213246    1.0175302 
H     5.0517610    0.6132618    2.2141928 
H     2.2304287    3.6797141    1.0337267 
H     4.0369315    4.8816369   -0.1644482 
C    -3.2983992    2.9016472    5.3582917 
C    -3.2686415    1.5661318    4.9276923 
C    -2.1064541    1.0356150    4.3607944 
C    -0.9532016    1.8359618    4.1945716 
C    -0.9917148    3.1750019    4.6446383 
C    -2.1518305    3.6994110    5.2248626 
H    -4.2072093    3.3165900    5.8056607 
H    -4.1571579    0.9345572    5.0302088 
H    -2.0954080   -0.0032074    4.0148268 
H    -0.0955401    3.7997502    4.5760910 
H    -2.1570745    4.7323689    5.5876891 
C    -2.8011017    6.0755507    0.0232753 
C    -2.4331912    5.4958239    1.4151994 
C    -0.8977381    5.5422098    1.5852161 
C    -3.0673760    6.3734862    2.5204491 
C    -2.9699894    4.0521827    1.4759135 
C    -2.1450876    2.9487635    1.1963814 
C    -4.3292915    3.7939073    1.7392354 
C    -4.8823792    2.4969321    1.7359454 
C    -6.3818017    2.2997072    2.0352493 
C    -6.7244286    2.9100255    3.4179774 
C    -6.7757541    0.8073799    2.0541146 
C    -7.2085162    3.0139768    0.9345861 
C    -4.0320290    1.4206527    1.4296499 
C    -2.6749451    1.6470962    1.1488125 
C    -2.2468147   -1.2793173    1.1293567 
C    -3.4396304   -1.7795076    0.5703774 
C    -3.9960316   -2.9736289    1.0522218 
C    -5.3230773   -3.5390240    0.5108561 
C    -5.8638484   -2.7051884   -0.6697097 
C    -6.3746208   -3.5211924    1.6507306 
C    -5.1069268   -4.9952656    0.0274604 
C    -3.3117042   -3.6586502    2.0840806 
C    -2.1038656   -3.2008510    2.6365760 
C    -1.5835344   -1.9912498    2.1377084 
C    -1.3448340   -3.9415579    3.7546414 
C    -2.0322075   -5.2645304    4.1490640 
C     0.0940228   -4.2577615    3.2729787 
C    -1.2765426   -3.0258883    5.0046495 
C    -1.6430543    0.3789770   -1.2271714 
C    -2.1999293    1.5088803   -1.8613756 
C    -2.2160124    1.5900541   -3.2576984 
C    -1.6783693    0.5628478   -4.0411207 
C    -1.0987233   -0.6728355   -2.0008015 
C    -1.1266932   -0.5671345   -3.4163199 
C    -0.5511228   -1.9406168   -1.4280721 
C    -1.2909616   -3.1271545   -1.6730327 
O    -2.4895073   -2.9566074   -2.3094050 
C    -2.9998276   -3.9938901   -3.1668772 
C    -2.2628605   -4.0487361   -4.5053022 
C    -2.3481126   -2.7358328   -5.3249172 
C    -1.0292381   -1.9661010   -5.4001747 
O    -0.5449639   -1.6002335   -4.0960778 
C    -0.8147716   -4.3742660   -1.2379349 
C     0.4137629   -4.4474773   -0.5734708 
C     1.1650604   -3.2931245   -0.3275516 
C     0.6871427   -2.0348283   -0.7465787 
C     1.7842762    0.4139917   -1.9267110 
C     1.4982139    1.7881943   -1.9540365 
C     1.6513739    2.5218580   -3.1430829 
C     1.3434194    4.0290165   -3.2283947 
C     2.6749690    4.7958917   -3.4352620 
C     0.6641568    4.5448141   -1.9422579 
C     0.3929829    4.3056139   -4.4201224 
C     2.1300931    1.8334001   -4.2749873 
C     2.4208316    0.4537084   -4.2784145 
C     2.2204646   -0.2572402   -3.0837203 
C     2.9660520   -0.2169824   -5.5542434 
C     3.0842865   -1.7470115   -5.3899768 
C     4.3737372    0.3603130   -5.8547375 
C     2.0249322    0.0797140   -6.7483668 
C     3.3111963   -1.0625882    0.0948463 
C     4.4250421   -0.8364752   -0.7277091 
C     5.7054766   -1.2754388   -0.3416551 
C     6.9040442   -1.0949303   -1.2948430 
C     8.2459131   -1.0727230   -0.5284725 
C     6.7853379    0.2194306   -2.1041283 
C     6.9008096   -2.2945912   -2.2804984 
C     5.8329150   -1.9372265    0.8964223 
C     4.7363700   -2.1659984    1.7529867 
C     3.4747394   -1.7093235    1.3333930 
C     4.8641260   -2.9052322    3.0999060 
C     6.3358300   -3.1548999    3.4901242 
C     4.1412211   -4.2723042    2.9763902 
C     4.1975697   -2.0696483    4.2228464 
H    -2.4384956    7.1151963   -0.0713986 
H    -3.8947954    6.0761636   -0.1275918 
H    -2.3449817    5.4752139   -0.7838379 
H    -0.5543296    6.5908926    1.5926627 
H    -0.3726266    5.0331851    0.7594701 
H    -0.5906759    5.0733565    2.5358082 
H    -4.1574360    6.4828057    2.3910919 
H    -2.6323820    7.3876516    2.4908077 
H    -2.8813512    5.9435200    3.5190847 
H    -1.0775338    3.0879873    0.9954626 
H    -4.9885514    4.6392374    1.9569118 
H    -7.8022965    2.7931180    3.6284472 
H    -6.4881692    3.9869390    3.4624270 
H    -6.1592003    2.4048321    4.2193960 
H    -7.8489614    0.7085645    2.2910762 
H    -6.6064010    0.3259495    1.0749473 
H    -6.2091122    0.2450582    2.8176666 
H    -6.9972089    4.0969367    0.9071058 
H    -6.9773089    2.5961983   -0.0610766 
H    -8.2894742    2.8849941    1.1225253 
H    -4.4168320    0.3998960    1.4166216 
H    -3.9092190   -1.2347502   -0.2514119 
H    -5.1324713   -2.6518529   -1.4938967 
H    -6.7895559   -3.1642168   -1.0571859 
H    -6.1095125   -1.6737545   -0.3614192 
H    -7.3385951   -3.9215561    1.2890093 
H    -6.0532988   -4.1359291    2.5094596 
H    -6.5413092   -2.4909779    2.0117000 
H    -4.3372002   -5.0321117   -0.7616790 
H    -4.7838227   -5.6581086    0.8482723 
H    -6.0464589   -5.4054485   -0.3833725 
H    -3.7444062   -4.5889326    2.4602151 
H    -0.6375822   -1.5927773    2.5217155 
H    -2.0981419   -5.9590767    3.2930010 
H    -1.4500982   -5.7645344    4.9421647 
H    -3.0508507   -5.0954360    4.5402458 
H     0.0774727   -4.9073839    2.3815615 
H     0.6614293   -4.7703114    4.0699332 
H     0.6440543   -3.3387739    3.0047375 
H    -2.2890492   -2.7588611    5.3543819 
H    -0.7495244   -3.5390931    5.8285588 
H    -0.7331410   -2.0880742    4.7922197 
H    -2.6329098    2.3164850   -1.2660476 
H    -2.6579364    2.4655678   -3.7443320 
H    -1.6844928    0.6466004   -5.1306050 
H    -4.0588623   -3.7253083   -3.3118180 
H    -2.9750725   -4.9755843   -2.6601014 
H    -2.7001943   -4.8857845   -5.0793082 
H    -1.2064824   -4.3182085   -4.3182132 
H    -2.6547427   -2.9537352   -6.3640813 
H    -3.1243888   -2.0692704   -4.9045986 
H    -1.1243403   -1.0790828   -6.0521427 
H    -0.2280105   -2.5980531   -5.8167454 
H    -1.3956943   -5.2827697   -1.4148816 
H     0.7941690   -5.4205852   -0.2459223 
H     2.1313576   -3.3791774    0.1740760 
H     1.1436426    2.2641093   -1.0359371 
H     3.3720453    4.5969897   -2.6029077 
H     2.4899296    5.8840602   -3.4860152 
H     3.1718717    4.4914474   -4.3728334 
H    -0.2711006    3.9956743   -1.7331172 
H     1.3272721    4.4478141   -1.0657468 
H     0.4136090    5.6141417   -2.0507791 
H     0.1580413    5.3833126   -4.4765272 
H    -0.5516637    3.7482061   -4.3013129 
H     0.8434909    4.0128086   -5.3838335 
H     2.2806848    2.3980127   -5.2010290 
H     2.3950556   -1.3344534   -3.0376005 
H     3.8117103   -2.0181676   -4.6042293 
H     2.1120400   -2.2002289   -5.1298752 
H     3.4343656   -2.1984057   -6.3342363 
H     4.7906807   -0.0999234   -6.7683130 
H     5.0662550    0.1576615   -5.0192645 
H     4.3384377    1.4528162   -6.0091489 
H     1.9539809    1.1605094   -6.9587614 
H     1.0077714   -0.2944199   -6.5459315 
H     2.4009702   -0.4134269   -7.6622312 
H     4.2927121   -0.3057007   -1.6718492 
H     8.4591605   -2.0345349   -0.0312865 
H     8.2567468   -0.2779217    0.2383852 
H     9.0741346   -0.8805310   -1.2320219 
H     5.9114260    0.2158743   -2.7774135 
H     6.6954135    1.0948058   -1.4392519 
H     7.6817182    0.3500931   -2.7347815 
H     5.9607407   -2.3226234   -2.8601112 
H     6.9951241   -3.2514450   -1.7378489 
H     7.7431856   -2.2131870   -2.9910004 
H     6.8203524   -2.2824268    1.2054763 
H     2.5992492   -1.8546750    1.9769921 
H     6.3798042   -3.6605411    4.4699977 
H     6.9006266   -2.2094321    3.5719615 
H     6.8492674   -3.8049451    2.7604464 
H     3.0742209   -4.1418562    2.7251841 
H     4.2008996   -4.8280789    3.9294356 
H     4.6047086   -4.8889450    2.1866170 
H     4.3086348   -2.5808341    5.1951993 
H     4.6647458   -1.0721462    4.3046734 
H     3.1156957   -1.9306694    4.0480381 
