203
Energy =
C     2.3627419    1.4336481    2.4724118 
C     1.1508704    1.9206707    3.0617215 
C     0.1977927    1.0045292    3.5632979 
H     0.8877908    2.9821255    2.9719983 
Pd    0.6231100    0.6432477    1.3564533 
P    -1.5356150    0.3167286    0.5610935 
P     1.6735542   -0.4632880   -0.4113115 
H     2.7874761    0.5097324    2.8869631 
H     0.5680164   -0.0095145    3.7840000 
C     5.1852987    3.8802295    0.3300443 
C     3.8418305    4.2827143    0.4226286 
C     2.9175790    3.4972258    1.1173131 
C     3.3140301    2.2885872    1.7388635 
C     4.6642408    1.8893617    1.6263199 
C     5.5898034    2.6820019    0.9363223 
H     5.9094796    4.4974294   -0.2115647 
H     3.5146464    5.2141399   -0.0515946 
H     1.8706086    3.8152263    1.1638595 
H     4.9854712    0.9476231    2.0846229 
H     6.6347151    2.3618890    0.8747383 
C    -3.6903716    1.7165275    5.2384765 
C    -3.1832261    0.4138125    5.1212991 
C    -1.9125714    0.2082803    4.5768200 
C    -1.1238636    1.2956550    4.1320204 
C    -1.6528784    2.6013894    4.2496790 
C    -2.9225948    2.8067401    4.7972387 
H    -4.6799217    1.8826487    5.6759745 
H    -3.7762725   -0.4429128    5.4579076 
H    -1.5203647   -0.8092221    4.4856500 
H    -1.0675975    3.4632731    3.9177545 
H    -3.3180598    3.8239311    4.8788989 
C    -2.6908769    6.2296893   -0.0269913 
C    -2.1945955    5.5605574    1.2813009 
C    -0.6509735    5.5422805    1.2771262 
C    -2.6556419    6.3967261    2.5008397 
C    -2.7851885    4.1380961    1.3483737 
C    -2.0242185    2.9960546    1.0468430 
C    -4.1388937    3.9452994    1.6897634 
C    -4.7327638    2.6728617    1.7909859 
C    -6.2280274    2.5352084    2.1396771 
C    -6.5910368    1.0874800    2.5375354 
C    -7.0468682    2.9299272    0.8819579 
C    -6.6110199    3.4727766    3.3109795 
C    -3.9352829    1.5499959    1.4992950 
C    -2.6011339    1.7104881    1.0978407 
C    -2.3144517   -1.2558208    1.0594871 
C    -3.5758629   -1.6524484    0.5824510 
C    -4.1606826   -2.8461140    1.0414247 
C    -5.5740778   -3.2859097    0.6118309 
C    -6.5122944   -3.1843861    1.8431616 
C    -5.5465718   -4.7498491    0.1059642 
C    -6.1353687   -2.3925865   -0.5149258 
C    -3.4239032   -3.6325045    1.9509632 
C    -2.1335701   -3.2882145    2.4013059 
C    -1.5946481   -2.0760455    1.9445848 
C    -1.3716001   -4.2073731    3.3751614 
C    -1.3232675   -5.6477910    2.8061642 
C     0.0806611   -3.7288436    3.5927981 
C    -2.1091138   -4.2112469    4.7388333 
C    -1.6283929    0.3720716   -1.2787214 
C    -2.1866300    1.4804976   -1.9470718 
C    -2.1980980    1.5164500   -3.3460200 
C    -1.6714783    0.4573876   -4.0942200 
C    -1.0760692   -0.7008743   -2.0155204 
C    -1.1235699   -0.6541325   -3.4325782 
C    -0.5176984   -1.9456218   -1.4013700 
C    -1.2783928   -3.1312608   -1.5707297 
O    -2.5030647   -2.9597675   -2.1503687 
C    -3.0834039   -4.0168853   -2.9327934 
C    -2.4079735   -4.1510574   -4.2983143 
C    -2.4765688   -2.8656365   -5.1633153 
C    -1.1309682   -2.1584628   -5.3354232 
O    -0.5787817   -1.7285270   -4.0779514 
C    -0.7896051   -4.3698929   -1.1245620 
C     0.4709456   -4.4323439   -0.5205312 
C     1.2373842   -3.2755955   -0.3366634 
C     0.7465037   -2.0259371   -0.7672650 
C     1.8654741    0.3883241   -2.0125796 
C     1.5484301    1.7566896   -2.0916610 
C     1.7330530    2.4569897   -3.2930009 
C     1.3962153    3.9529386   -3.4370662 
C     0.6534821    4.4894224   -2.1961615 
C     0.4923705    4.1725691   -4.6758723 
C     2.7192253    4.7441376   -3.6066264 
C     2.2814035    1.7519004   -4.3873920 
C     2.6127659    0.3861848   -4.3362005 
C     2.3678347   -0.2989117   -3.1289927 
C     3.2317939   -0.3669609   -5.5315662 
C     3.5166124    0.5658887   -6.7271381 
C     2.2531264   -1.4731895   -5.9954854 
C     4.5709939   -1.0123426   -5.0919362 
C     3.3525185   -0.9864302    0.1159498 
C     4.5088923   -0.6922728   -0.6254594 
C     5.7810558   -1.0517111   -0.1411049 
C     7.0512695   -0.7874383   -0.9744214 
C     8.2638690   -0.4729120   -0.0659854 
C     6.8551720    0.3992700   -1.9461100 
C     7.3497922   -2.0691192   -1.7975200 
C     5.8550420   -1.7104064    1.1037257 
C     4.7159183   -2.0026030    1.8799584 
C     3.4641031   -1.6196911    1.3673748 
C     4.7878435   -2.7263678    3.2392174 
C     6.2403777   -2.9089771    3.7261079 
C     4.1341545   -4.1245083    3.0851906 
C     4.0147068   -1.9103463    4.3070114 
H    -2.2994159    7.2597494   -0.1088615 
H    -3.7934374    6.2773906   -0.0541887 
H    -2.3516153    5.6588323   -0.9095393 
H    -0.2637230    6.5753144    1.2647282 
H    -0.2454231    5.0290127    0.3908426 
H    -0.2526255    5.0460803    2.1804164 
H    -3.7494038    6.5361138    2.5231678 
H    -2.1971989    7.4003581    2.4649505 
H    -2.3523803    5.9147341    3.4473220 
H    -0.9699379    3.0872863    0.7634936 
H    -4.7538682    4.8250899    1.8988504 
H    -7.6513539    1.0381122    2.8391109 
H    -5.9750539    0.7341313    3.3831051 
H    -6.4573741    0.3845247    1.6970516 
H    -8.1298172    2.8454898    1.0844162 
H    -6.8338584    3.9702301    0.5794436 
H    -6.7999442    2.2704234    0.0311849 
H    -6.0129541    3.2479102    4.2098276 
H    -6.4626697    4.5364330    3.0586310 
H    -7.6777099    3.3421846    3.5637752 
H    -4.3509653    0.5447617    1.5798234 
H    -4.0849664   -1.0301532   -0.1565483 
H    -6.5464737   -2.1490659    2.2249558 
H    -7.5390161   -3.4882304    1.5709400 
H    -6.1701080   -3.8383356    2.6642357 
H    -6.5570318   -5.0606076   -0.2130940 
H    -4.8647172   -4.8546732   -0.7546386 
H    -5.2156754   -5.4523301    0.8897595 
H    -6.2638895   -1.3466594   -0.1848284 
H    -5.4738700   -2.3947722   -1.3988943 
H    -7.1268545   -2.7636244   -0.8263385 
H    -3.8727576   -4.5615987    2.3174320 
H    -0.5956867   -1.7524505    2.2492575 
H    -0.8219103   -5.6596722    1.8234487 
H    -0.7651867   -6.3099375    3.4916509 
H    -2.3331929   -6.0738758    2.6804303 
H     0.6305533   -3.6752020    2.6368030 
H     0.6136712   -4.4329843    4.2543235 
H     0.1219438   -2.7344692    4.0729828 
H    -3.1454001   -4.5768506    4.6341016 
H    -1.5873802   -4.8672255    5.4584840 
H    -2.1503805   -3.1938428    5.1669707 
H    -2.6235682    2.3046329   -1.3774849 
H    -2.6338230    2.3779948   -3.8625530 
H    -1.6873207    0.4989165   -5.1861866 
H    -4.1387620   -3.7193482   -3.0440256 
H    -3.0650253   -4.9747879   -2.3814908 
H    -2.8998190   -4.9907826   -4.8220997 
H    -1.3553531   -4.4545711   -4.1447644 
H    -2.8429220   -3.1095878   -6.1770434 
H    -3.2029231   -2.1499977   -4.7343120 
H    -1.2138823   -1.3115349   -6.0411124 
H    -0.3752702   -2.8512982   -5.7381320 
H    -1.3835516   -5.2790070   -1.2465053 
H     0.8642406   -5.3990502   -0.1891672 
H     2.2253141   -3.3520385    0.1236032 
H     1.1511690    2.2509092   -1.2011926 
H    -0.2826164    3.9320092   -2.0141383 
H     0.3944569    5.5525453   -2.3416385 
H     1.2808020    4.4211122   -1.2915931 
H     0.9921371    3.8672716   -5.6109789 
H    -0.4423478    3.5933123   -4.5826505 
H     0.2325797    5.2417700   -4.7716302 
H     2.5120889    5.8252902   -3.7028843 
H     3.2676013    4.4215823   -4.5087464 
H     3.3788285    4.5900058   -2.7346995 
H     2.4548035    2.2994496   -5.3167962 
H     2.5760995   -1.3709662   -3.0484751 
H     2.5918677    1.0255036   -7.1185289 
H     4.2197399    1.3733277   -6.4567877 
H     3.9722300   -0.0135249   -7.5486862 
H     2.6996956   -2.0596438   -6.8184769 
H     1.3150370   -1.0230310   -6.3614974 
H     2.0001472   -2.1637394   -5.1735154 
H     4.4345238   -1.7162719   -4.2528033 
H     5.2917494   -0.2386452   -4.7759349 
H     5.0178834   -1.5733573   -5.9318340 
H     4.4129096   -0.1682361   -1.5778444 
H     8.5477370   -1.3307128    0.5671656 
H     8.0565487    0.3869684    0.5950612 
H     9.1412879   -0.2244697   -0.6877127 
H     6.0883677    0.1863728   -2.7089051 
H     6.5562629    1.3156477   -1.4090909 
H     7.7995088    0.6017804   -2.4802494 
H     6.5074071   -2.3064746   -2.4709120 
H     7.5115004   -2.9363880   -1.1335039 
H     8.2568473   -1.9300497   -2.4130935 
H     6.8368604   -1.9974474    1.4834911 
H     2.5552672   -1.8076628    1.9513499 
H     6.2423590   -3.4078537    4.7104480 
H     6.7566557   -1.9392268    3.8379322 
H     6.8280806   -3.5386949    3.0356498 
H     3.0803590   -4.0427602    2.7669914 
H     4.1576375   -4.6693562    4.0460711 
H     4.6725526   -4.7266251    2.3326482 
H     4.0788179   -2.4103646    5.2893936 
H     4.4371778   -0.8950835    4.4104665 
H     2.9430241   -1.8146905    4.0569521 
