203
Energy =
C     3.4560866    1.3990164   -0.8165237 
C     3.8692151    0.2346183   -0.1296373 
C     3.5756694   -1.0575761   -0.6613632 
H     4.2736827    0.3215212    0.8873829 
Pd    1.6802626    0.0511114   -0.3009674 
P     0.1475188   -1.6928931   -0.4625643 
P     0.0402909    1.6525590    0.1569828 
H     3.1930379    1.2778442   -1.8795839 
H     3.5380437   -1.1437574   -1.7566699 
C     4.2490669    5.4885389    0.2377183 
C     3.2921561    5.1738702   -0.7394822 
C     3.0361359    3.8391681   -1.0660507 
C     3.7178034    2.7882636   -0.4091414 
C     4.6719125    3.1192193    0.5795729 
C     4.9397515    4.4565622    0.8907867 
H     4.4649688    6.5330967    0.4836206 
H     2.7445550    5.9724027   -1.2510813 
H     2.2882765    3.5994985   -1.8291060 
H     5.2379972    2.3283278    1.0818240 
H     5.7037492    4.6980395    1.6366278 
C     4.3660256   -4.7790569    1.3521275 
C     3.9905667   -3.6492370    2.0988940 
C     3.7353762   -2.4335152    1.4568223 
C     3.8502647   -2.3198464    0.0527332 
C     4.2299925   -3.4621891   -0.6827542 
C     4.4883941   -4.6783505   -0.0411914 
H     4.5611594   -5.7314201    1.8562228 
H     3.8905885   -3.7194990    3.1864527 
H     3.4206428   -1.5639550    2.0450461 
H     4.3215912   -3.3912311   -1.7701430 
H     4.7837693   -5.5487536   -0.6352607 
C    -0.1848381    3.2994248   -6.2657894 
C     0.3627920    2.4883659   -5.0737040 
C     0.1974677    0.9780904   -5.3838423 
C     1.8686544    2.8177532   -4.9060225 
C    -0.3774100    2.8092393   -3.7606073 
C     0.0382185    2.1885298   -2.5670371 
C    -1.4650241    3.6956751   -3.6816257 
C    -2.1618930    3.9548715   -2.4782495 
C    -3.3325439    4.9567700   -2.4721624 
C    -4.3632400    4.5719171   -3.5630302 
C    -2.7705137    6.3718102   -2.7696219 
C    -4.0531912    4.9888827   -1.1077744 
C    -1.7316885    3.3021243   -1.3133383 
C    -0.6148861    2.4439889   -1.3537300 
C     0.7043657    2.9595193    1.2576520 
C     0.3186342    4.3055931    1.1671566 
C     0.7686663    5.2399863    2.1171370 
C     0.3412663    6.7207209    2.0771128 
C     1.5948646    7.6309151    2.0550225 
C    -0.5005843    7.0278283    3.3429610 
C    -0.5105861    7.0420766    0.8306338 
C     1.6094632    4.7763719    3.1484099 
C     2.0327612    3.4363646    3.2544850 
C     1.5716971    2.5339308    2.2810185 
C     2.9194616    2.9891723    4.4338304 
C     2.0533310    3.0093821    5.7206662 
C     3.4749782    1.5627105    4.2275863 
C     4.1195029    3.9517106    4.6085338 
C    -1.4481421    1.0590472    1.0727260 
C    -1.6802106    1.4759001    2.3990099 
C    -2.8005761    1.0062334    3.0927258 
C    -3.6940157    0.1147127    2.4897104 
C    -2.3427792    0.1644389    0.4408691 
C    -3.4682737   -0.3040611    1.1685898 
C    -2.2481540   -0.2542366   -0.9915975 
C    -3.2707233    0.2268240   -1.8533389 
O    -4.1344916    1.1275322   -1.2961365 
C    -5.4845711    1.2224503   -1.7818868 
C    -6.3470111    0.0489193   -1.3158159 
C    -6.4483500   -0.0803789    0.2254031 
C    -5.6737209   -1.2634998    0.8073871 
O    -4.2674074   -1.1977949    0.5106383 
C    -3.3428948   -0.1894040   -3.1920223 
C    -2.4043282   -1.1055783   -3.6760902 
C    -1.3854677   -1.5898188   -2.8495600 
C    -1.2904892   -1.1622988   -1.5087363 
C     0.8273691   -3.1705321   -1.3155586 
C     1.4916351   -2.9710611   -2.5423737 
C     1.9837045   -4.0593074   -3.2812863 
C     2.6595407   -3.8824636   -4.6556803 
C     1.7344675   -4.4981098   -5.7377881 
C     4.0291103   -4.6071690   -4.6738776 
C     2.8949897   -2.3954282   -4.9975447 
C     1.8122953   -5.3481988   -2.7352579 
C     1.1951447   -5.5776578   -1.4914635 
C     0.7047807   -4.4631683   -0.7842062 
C     1.0176746   -7.0167336   -0.9667433 
C     2.3816868   -7.7498186   -0.9337900 
C     0.0493120   -7.7660198   -1.9194542 
C     0.4235388   -7.0398723    0.4575627 
C    -0.5599587   -2.2922853    1.1118704 
C     0.0299769   -1.9125208    2.3247268 
C    -0.4611207   -2.4125431    3.5494585 
C     0.1831027   -1.9663309    4.8776104 
C     1.7014080   -2.2702326    4.8440968 
C    -0.4272082   -2.6887832    6.0966592 
C    -0.0346790   -0.4428220    5.0527703 
C    -1.5445326   -3.3044089    3.4968587 
C    -2.1657363   -3.6982818    2.2895948 
C    -1.6641275   -3.1696406    1.0924195 
C    -3.3520835   -4.6803884    2.3294597 
C    -3.9192941   -4.9495525    0.9200277 
C    -4.4779278   -4.0827876    3.2109741 
C    -2.8818932   -6.0251346    2.9415413 
H     0.3763427    3.0416781   -7.1805045 
H    -0.0781930    4.3864535   -6.1029388 
H    -1.2499848    3.0780262   -6.4548738 
H     0.7471891    0.7127634   -6.3048072 
H    -0.8666195    0.7232570   -5.5253322 
H     0.5821499    0.3497558   -4.5616625 
H     2.0151830    3.8821574   -4.6521125 
H     2.4132039    2.6079040   -5.8435964 
H     2.3340034    2.2110626   -4.1091758 
H     0.8725782    1.4779272   -2.5721767 
H    -1.7974847    4.2041195   -4.5899309 
H    -5.2133196    5.2768634   -3.5490739 
H    -4.7535268    3.5548018   -3.3910368 
H    -3.9242177    4.6013113   -4.5748406 
H    -3.5864515    7.1166642   -2.7713574 
H    -2.0330159    6.6681579   -2.0031148 
H    -2.2731018    6.4097650   -3.7544184 
H    -4.4280264    3.9898549   -0.8260587 
H    -3.3875830    5.3448430   -0.3019634 
H    -4.9123265    5.6799434   -1.1554641 
H    -2.2617332    3.4374142   -0.3682868 
H    -0.3317056    4.6203041    0.3496850 
H     2.1989806    7.4394397    1.1523294 
H     1.2930797    8.6933528    2.0517932 
H     2.2386410    7.4673050    2.9362634 
H    -0.8269134    8.0832776    3.3395060 
H    -1.3991243    6.3868637    3.3802413 
H     0.0789898    6.8558832    4.2664269 
H     0.0381314    6.8281323   -0.1039230 
H    -1.4527755    6.4664484    0.8178117 
H    -0.7765889    8.1130413    0.8272569 
H     1.9516282    5.4923725    3.9025507 
H     1.8731522    1.4816087    2.3077297 
H     1.1859139    2.3347396    5.6195305 
H     2.6489220    2.6826290    6.5921554 
H     1.6727198    4.0247634    5.9278255 
H     2.6737119    0.8053390    4.1969548 
H     4.1437128    1.2980353    5.0644762 
H     4.0584291    1.4913313    3.2922310 
H     3.7956285    4.9839468    4.8241124 
H     4.7497397    3.6194983    5.4520972 
H     4.7405883    3.9723050    3.6978632 
H    -0.9947189    2.1742836    2.8846611 
H    -2.9813640    1.3394782    4.1198828 
H    -4.5588423   -0.2524577    3.0478733 
H    -5.5043149    1.3208119   -2.8825769 
H    -5.8547464    2.1708006   -1.3599471 
H    -5.9487062   -0.8846670   -1.7556813 
H    -7.3518560    0.1940879   -1.7523926 
H    -6.0988219    0.8490049    0.7132443 
H    -7.5035599   -0.2108582    0.5270427 
H    -5.9988785   -2.2110154    0.3475650 
H    -5.8457667   -1.3492793    1.8958092 
H    -4.1261176    0.1918597   -3.8517262 
H    -2.4674654   -1.4486057   -4.7139454 
H    -0.6759676   -2.3176540   -3.2478909 
H     1.6112745   -1.9507139   -2.9178784 
H     1.5616683   -5.5729014   -5.5552370 
H     2.1881823   -4.3907480   -6.7393855 
H     0.7525245   -3.9925668   -5.7455938 
H     4.7114979   -4.1872035   -3.9137773 
H     3.9271770   -5.6881946   -4.4791275 
H     4.5071669   -4.4901943   -5.6622945 
H     3.4045344   -2.3138130   -5.9728873 
H     3.5364395   -1.9015048   -4.2445787 
H     1.9481716   -1.8321270   -5.0712358 
H     2.1804638   -6.2090535   -3.3030032 
H     0.2209362   -4.5975011    0.1838347 
H     2.8604116   -7.7795203   -1.9277310 
H     3.0732974   -7.2525590   -0.2332128 
H     2.2425151   -8.7930708   -0.5991658 
H    -0.1094149   -8.8012779   -1.5679109 
H     0.4490519   -7.8139230   -2.9473656 
H    -0.9309523   -7.2588568   -1.9588575 
H    -0.5855382   -6.5930650    0.4862365 
H     1.0636716   -6.4953801    1.1742273 
H     0.3346173   -8.0831314    0.8063926 
H     0.8716116   -1.2114896    2.3029203 
H     2.2061847   -1.7317773    4.0249604 
H     1.8810277   -3.3501715    4.7041774 
H     2.1751172   -1.9579723    5.7917424 
H    -1.5052357   -2.4746110    6.2027811 
H    -0.2933306   -3.7830142    6.0321301 
H     0.0714592   -2.3437876    7.0188988 
H    -1.1099883   -0.2095247    5.1243262 
H     0.3709854    0.1283306    4.2004181 
H     0.4627122   -0.0885323    5.9731861 
H    -1.9351498   -3.7123014    4.4321292 
H    -2.1229160   -3.4205480    0.1333485 
H    -4.7833561   -5.6327334    0.9893768 
H    -3.1694672   -5.4269347    0.2640934 
H    -4.2554423   -4.0160298    0.4367734 
H    -4.1470702   -3.9345524    4.2532053 
H    -5.3513062   -4.7588546    3.2287315 
H    -4.8005766   -3.1058718    2.8153085 
H    -3.7221689   -6.7412512    2.9800282 
H    -2.0744208   -6.4720052    2.3365489 
H    -2.5030127   -5.8940294    3.9699109 
