203
Energy =
C     3.4232068    1.2683328   -0.9839134 
C     3.8431490    0.2638054   -0.0823112 
C     3.5742434   -1.1138881   -0.3749869 
H     4.2141792    0.5493746    0.9097940 
Pd    1.6710702    0.0056736   -0.2619387 
P     0.1024337   -1.7049473   -0.4701486 
P     0.0926915    1.6598887    0.1776427 
H     3.2109667    0.9412221   -2.0145986 
H     3.5892580   -1.4149446   -1.4309800 
C     3.6606143    5.5418276   -0.6476302 
C     3.0889661    4.9380436   -1.7775260 
C     3.0287901    3.5446084   -1.8662572 
C     3.5308959    2.7241793   -0.8283982 
C     4.0973769    3.3484552    0.3064982 
C     4.1600789    4.7422476    0.3934687 
H     3.7202236    6.6327293   -0.5796794 
H     2.6928949    5.5529722   -2.5924108 
H     2.5808857    3.0768521   -2.7483509 
H     4.4975556    2.7429280    1.1243727 
H     4.5992412    5.2093730    1.2803942 
C     4.1107763   -4.3656501    2.3990847 
C     3.9667211   -3.0534397    2.8809261 
C     3.7953426   -1.9897372    1.9899536 
C     3.7680911   -2.2109151    0.5919610 
C     3.9059324   -3.5364320    0.1221908 
C     4.0812792   -4.5990402    1.0164779 
H     4.2458142   -5.1976334    3.0978676 
H     3.9868620   -2.8601991    3.9587850 
H     3.6654447   -0.9767331    2.3848720 
H     3.8707146   -3.7312219   -0.9547140 
H     4.2006632   -5.6154565    0.6281429 
C     0.7282879    3.6088722   -5.6553514 
C    -0.0479545    2.3828764   -5.1089351 
C    -1.2170964    2.0398370   -6.0661982 
C     0.9045897    1.1682520   -5.0607200 
C    -0.6005145    2.7304791   -3.7134006 
C    -0.1123194    2.1258568   -2.5446191 
C    -1.6129065    3.6995974   -3.5665123 
C    -2.1769861    4.0466430   -2.3217156 
C    -3.2768091    5.1237735   -2.2480980 
C    -4.4185305    4.7847996   -3.2389728 
C    -2.6519389    6.4907634   -2.6314300 
C    -3.8789972    5.2323354   -0.8310177 
C    -1.6810329    3.4017129   -1.1750959 
C    -0.6326506    2.4714901   -1.2861387 
C     0.8449775    2.9404867    1.2553734 
C     0.5860067    4.3117435    1.1157324 
C     1.1026289    5.2338466    2.0456532 
C     0.7558901    6.7342240    1.9752806 
C    -0.3131973    7.0253564    3.0617944 
C     0.1833632    7.1241747    0.5946807 
C     2.0075698    7.6044752    2.2470662 
C     1.8986788    4.7344747    3.0940296 
C     2.2270273    3.3705082    3.2290103 
C     1.6811928    2.4770293    2.2918719 
C     3.1229652    2.8974491    4.3911410 
C     3.6704332    1.4739441    4.1522295 
C     4.3335193    3.8482057    4.5639961 
C     2.2725259    2.8949172    5.6881651 
C    -1.3350478    1.0374212    1.1663836 
C    -1.4691283    1.3612040    2.5316395 
C    -2.5278662    0.8263438    3.2742192 
C    -3.4642300   -0.0246131    2.6764063 
C    -2.2663792    0.1728018    0.5450759 
C    -3.3416950   -0.3418367    1.3135967 
C    -2.2370102   -0.1807509   -0.9080431 
C    -3.2650038    0.3640304   -1.7197902 
O    -4.0976601    1.2494625   -1.0954409 
C    -5.4686431    1.3617779   -1.5147658 
C    -6.3083633    0.1753187   -1.0383913 
C    -6.3410893    0.0073302    0.5030710 
C    -5.5848308   -1.2204424    1.0133363 
O    -4.1923508   -1.1837784    0.6523051 
C    -3.3614289    0.0263049   -3.0797248 
C    -2.4407120   -0.8705791   -3.6329141 
C    -1.4193904   -1.4232871   -2.8515696 
C    -1.3094351   -1.0798720   -1.4889827 
C     0.7969141   -3.1232141   -1.4075443 
C     1.5805783   -2.8338089   -2.5464031 
C     2.1972191   -3.8599210   -3.2746581 
C     3.0947473   -3.5799141   -4.4956102 
C     4.5334135   -4.0653949   -4.1795860 
C     3.1517763   -2.0766643   -4.8408107 
C     2.5451330   -4.3424682   -5.7279834 
C     1.9979257   -5.1911588   -2.8354694 
C     1.2179559   -5.5122743   -1.7131578 
C     0.6297857   -4.4493188   -0.9937947 
C     0.9341695   -6.9623287   -1.2727000 
C     1.7944996   -7.9842319   -2.0443244 
C    -0.5640579   -7.2591217   -1.5503890 
C     1.2118520   -7.1324624    0.2420925 
C    -0.6505700   -2.4047670    1.0342628 
C    -1.7521227   -3.2731932    0.9244900 
C    -2.2849825   -3.8854836    2.0700108 
C    -3.4357042   -4.9070443    1.9950915 
C    -2.8765330   -6.3024867    2.3776134 
C    -4.0387778   -4.9869121    0.5765293 
C    -4.5602038   -4.5119247    2.9842989 
C    -1.7050961   -3.5607040    3.3134740 
C    -0.6330241   -2.6583092    3.4566629 
C    -0.0957150   -2.0948258    2.2857906 
C    -0.0675628   -2.3462560    4.8552101 
C     0.9211847   -1.1624171    4.8143571 
C     0.6757852   -3.6033407    5.3767620 
C    -1.2188852   -1.9797880    5.8245111 
H     1.1350064    3.3930041   -6.6595668 
H     1.5713119    3.8687671   -4.9905179 
H     0.0746141    4.4948125   -5.7354398 
H    -0.8265260    1.7725533   -7.0640925 
H    -1.9058833    2.8918026   -6.1964147 
H    -1.7985790    1.1860173   -5.6784320 
H     1.8070935    1.3716705   -4.4567565 
H     1.2449260    0.9188143   -6.0803750 
H     0.4011050    0.2801021   -4.6401163 
H     0.6653875    1.3585581   -2.5891410 
H    -1.9884689    4.2001156   -4.4649944 
H    -5.2146198    5.5476364   -3.1771011 
H    -4.8616080    3.8023216   -3.0047486 
H    -4.0649259    4.7582349   -4.2837534 
H    -3.4147387    7.2886898   -2.5861900 
H    -1.8325894    6.7546166   -1.9402003 
H    -2.2396246    6.4716805   -3.6553480 
H    -4.2976785    4.2671242   -0.4962265 
H    -3.1279898    5.5571027   -0.0893955 
H    -4.6909502    5.9797082   -0.8268070 
H    -2.1118860    3.6020524   -0.1917218 
H    -0.0249789    4.6568972    0.2805386 
H     0.0675370    6.7825225    4.0694126 
H    -0.5953014    8.0935753    3.0489467 
H    -1.2224431    6.4233538    2.8871506 
H     0.0041093    8.2124359    0.5589951 
H     0.8806869    6.8625696   -0.2204668 
H    -0.7817014    6.6270661    0.3947210 
H     2.4164057    7.4419019    3.2587580 
H     2.8057877    7.3890543    1.5171442 
H     1.7461561    8.6741139    2.1675998 
H     2.2910088    5.4403086    3.8316192 
H     1.8925157    1.4039404    2.3558416 
H     4.2615072    1.4222984    3.2200099 
H     4.3332633    1.1824639    4.9846479 
H     2.8651667    0.7242234    4.0961367 
H     4.9300880    3.9011113    3.6357524 
H     4.9894153    3.4804981    5.3722611 
H     4.0258518    4.8729122    4.8314317 
H     1.4173684    2.2025862    5.5917063 
H     2.8826722    2.5741309    6.5516950 
H     1.8744147    3.9018886    5.9032007 
H    -0.7571023    2.0384801    3.0099330 
H    -2.6293889    1.0810777    4.3342406 
H    -4.2809540   -0.4416962    3.2707989 
H    -5.5396463    1.4864757   -2.6107751 
H    -5.8149941    2.3001046   -1.0517860 
H    -5.9241255   -0.7445768   -1.5178663 
H    -7.3317480    0.3244252   -1.4279612 
H    -5.9272819    0.9064719    0.9970759 
H    -7.3847540   -0.0872584    0.8540469 
H    -5.9614533   -2.1413528    0.5392565 
H    -5.7085962   -1.3357275    2.1055362 
H    -4.1456982    0.4595098   -3.7054149 
H    -2.5232031   -1.1460655   -4.6894522 
H    -0.7214558   -2.1359149   -3.2982707 
H     1.7108368   -1.7888382   -2.8438615 
H     4.9465407   -3.5275057   -3.3074984 
H     5.1983066   -3.8827687   -5.0424902 
H     4.5587537   -5.1457375   -3.9559975 
H     2.1531621   -1.6736941   -5.0837266 
H     3.5748949   -1.4793988   -4.0125090 
H     3.7988912   -1.9216708   -5.7210084 
H     3.1814914   -4.1507677   -6.6101139 
H     1.5173302   -4.0154382   -5.9645921 
H     2.5253749   -5.4327584   -5.5595956 
H     2.4751417   -5.9979227   -3.3971873 
H     0.0390755   -4.6626094   -0.0999834 
H     1.5804187   -7.9690736   -3.1273476 
H     2.8735232   -7.7971061   -1.8996241 
H     1.5774898   -9.0031114   -1.6802092 
H    -0.8131586   -8.2922723   -1.2485289 
H    -0.7953967   -7.1453971   -2.6238049 
H    -1.2185827   -6.5716113   -0.9860620 
H     0.5915847   -6.4586721    0.8578933 
H     2.2690620   -6.9252441    0.4768709 
H     0.9860836   -8.1683879    0.5507375 
H    -2.1857785   -3.4572918   -0.0610486 
H    -2.4605774   -6.3036278    3.4002196 
H    -2.0725269   -6.6051275    1.6835620 
H    -3.6762365   -7.0634818    2.3332619 
H    -4.3984768   -4.0004122    0.2369567 
H    -3.3042414   -5.3564737   -0.1603621 
H    -4.8914020   -5.6876514    0.5719308 
H    -4.9509354   -3.5073864    2.7495721 
H    -4.2078014   -4.5040224    4.0297875 
H    -5.3947787   -5.2323310    2.9202227 
H    -2.1112529   -4.0312346    4.2146024 
H     0.7501193   -1.4034163    2.3257326 
H     1.2748135   -0.9308260    5.8340480 
H     0.4442030   -0.2548145    4.4032857 
H     1.8068960   -1.3975365    4.2012810 
H    -0.0072499   -4.4671582    5.4558357 
H     1.1021041   -3.4125245    6.3782934 
H     1.4972454   -3.8807816    4.6932242 
H    -0.8110768   -1.7290657    6.8198124 
H    -1.7819432   -1.1081121    5.4487793 
H    -1.9289582   -2.8134288    5.9589723 
