104
Energy =
C    -2.4986858    2.8669465   -0.3391181 
C    -1.2866197    3.5500149   -0.5862085 
C    -0.4736921    3.2426679   -1.7165628 
H    -0.8886367    4.2107987    0.1947263 
Pd   -0.7450337    1.4039527   -0.4728161 
P     0.8755572    0.0840533   -1.5332076 
P    -1.2377630   -0.2294057    1.1291460 
H    -2.9524298    2.3160878   -1.1788820 
H    -0.9832215    2.9006713   -2.6280923 
C    -5.1721115    3.5825695    2.9468256 
C    -4.2027721    4.5427578    2.6183955 
C    -3.3202713    4.3178292    1.5563402 
C    -3.3989666    3.1294539    0.7943283 
C    -4.3926083    2.1795902    1.1261711 
C    -5.2639499    2.3995091    2.1962249 
H    -5.8588006    3.7581152    3.7811841 
H    -4.1387088    5.4750722    3.1890017 
H    -2.5853348    5.0871455    1.2977915 
H    -4.4596468    1.2497860    0.5500731 
H    -6.0151931    1.6450597    2.4497771 
C     3.4620859    4.8533065   -2.3972816 
C     2.9509535    4.7933174   -1.0894234 
C     1.6738816    4.2760967   -0.8557729 
C     0.8745224    3.8062660   -1.9251708 
C     1.4010682    3.8759453   -3.2337979 
C     2.6807518    4.3945043   -3.4670316 
H     4.4639567    5.2561270   -2.5778740 
H     3.5560750    5.1471956   -0.2481235 
H     1.2995281    4.2201847    0.1727379 
H     0.7983180    3.5150560   -4.0739928 
H     3.0681889    4.4364155   -4.4902259 
C    -1.6570093    1.7063421    3.0938832 
C    -2.1992487    2.2375535    4.2697608 
C    -3.1376222    1.4979698    5.0054089 
C    -3.5319744    0.2279856    4.5604484 
C    -2.9852224   -0.3122912    3.3882731 
C    -2.0332385    0.4199434    2.6525365 
C    -2.2768536   -1.6346830    0.5849680 
C    -2.2773137   -2.8589171    1.2849927 
C    -3.0959213   -3.9093957    0.8530557 
C    -3.9138571   -3.7481015   -0.2761848 
C    -3.9106059   -2.5343744   -0.9802454 
C    -3.0931651   -1.4794065   -0.5523398 
C     0.3421993   -0.9782911    1.7290099 
C     0.8885997   -0.5567854    2.9584697 
C     2.1167335   -1.0645062    3.3982832 
C     2.8097309   -2.0086129    2.6332022 
C     1.0391991   -1.9186627    0.9303497 
C     2.2656684   -2.4403509    1.4145466 
C     0.5481592   -2.4670865   -0.3709525 
C     0.2497736   -3.8506916   -0.4167672 
O     0.3256246   -4.5394671    0.7628341 
C     1.1625338   -5.7151279    0.8477872 
C     2.3484301   -5.4362846    1.7775681 
C     3.4357525   -4.5446643    1.1685249 
O     2.8980840   -3.3376855    0.5955330 
C    -0.1712196   -4.4655902   -1.6056412 
C    -0.2704449   -3.7059689   -2.7756720 
C     0.0446698   -2.3413755   -2.7631466 
C     0.4533767   -1.7152140   -1.5686318 
C     1.0482048    0.5420516   -3.3050527 
C     2.2946669    0.7652687   -3.9177387 
C     2.3566300    1.1263478   -5.2726999 
C     1.1820058    1.2691172   -6.0237505 
C    -0.0669524    1.0586955   -5.4150597 
C    -0.1338913    0.7056100   -4.0617186 
C     2.5526923    0.1307591   -0.8037090 
C     2.8500891    1.0974399    0.1751952 
C     4.1201313    1.1288797    0.7645058 
C     5.0949132    0.1957293    0.3798244 
C     4.7995241   -0.7730448   -0.5922790 
C     3.5311353   -0.8114973   -1.1836870 
H    -0.9423142    2.2934152    2.5042480 
H    -1.9045231    3.2380300    4.6008412 
H    -3.5700332    1.9179256    5.9193324 
H    -4.2724809   -0.3470764    5.1260518 
H    -3.3079843   -1.2997312    3.0460417 
H    -1.6090145   -3.0032643    2.1398884 
H    -3.0814636   -4.8622061    1.3918246 
H    -4.5486443   -4.5737616   -0.6144487 
H    -4.5386354   -2.4121774   -1.8687155 
H    -3.0699373   -0.5353406   -1.1097170 
H     0.3476556    0.1589984    3.5826231 
H     2.5343551   -0.7243021    4.3513863 
H     3.7707027   -2.4033571    2.9743001 
H     1.5009749   -6.0138104   -0.1618715 
H     0.5372670   -6.5252868    1.2607392 
H     2.8157928   -6.3970873    2.0644852 
H     1.9571394   -4.9800002    2.7049808 
H     4.2181639   -4.3151489    1.9171294 
H     3.9232447   -5.0450267    0.3158882 
H    -0.4276222   -5.5292969   -1.6014597 
H    -0.5947058   -4.1792200   -3.7081107 
H    -0.0111404   -1.7710998   -3.6932634 
H     3.2176263    0.6750965   -3.3378879 
H     3.3314582    1.3039654   -5.7383982 
H     1.2356980    1.5509261   -7.0803311 
H    -0.9887058    1.1753157   -5.9944381 
H    -1.1105117    0.5523834   -3.5855194 
H     2.0765053    1.8088296    0.4812252 
H     4.3462978    1.8777770    1.5303872 
H     6.0863801    0.2184788    0.8443916 
H     5.5543284   -1.5115876   -0.8808758 
H     3.2896978   -1.5910675   -1.9135536 
