104
Energy =
C    -0.4465936    3.8206712    0.0481236 
C    -1.2533661    3.3958054   -1.0315481 
C    -2.5086673    2.7480000   -0.8134797 
H    -0.8434973    3.4323102   -2.0492745 
Pd   -0.8740069    1.5770042    0.1432998 
P     1.2751983    0.8044505    0.7329818 
P    -1.7813693   -0.5647855    0.2328063 
H    -0.9493905    3.9888341    1.0136458 
H    -3.0869494    3.0456561    0.0736097 
C     3.4023118    5.7172521   -0.2198837 
C     2.6004972    5.8740899    0.9199142 
C     1.3567664    5.2375921    0.9959973 
C     0.8819577    4.4426256   -0.0714996 
C     1.7034275    4.2904903   -1.2127334 
C     2.9499999    4.9186627   -1.2835871 
H     4.3778130    6.2108456   -0.2793140 
H     2.9469953    6.4889026    1.7565109 
H     0.7377316    5.3586677    1.8911089 
H     1.3739981    3.6677067   -2.0488943 
H     3.5734234    4.7845934   -2.1736538 
C    -4.7967597    0.9272627   -3.9772403 
C    -3.3972063    1.0006508   -4.0776934 
C    -2.6486612    1.5958203   -3.0575044 
C    -3.2820114    2.1394852   -1.9145985 
C    -4.6890805    2.0654690   -1.8338925 
C    -5.4384129    1.4636731   -2.8521634 
H    -5.3817901    0.4534083   -4.7720061 
H    -2.8872184    0.5825975   -4.9523054 
H    -1.5556249    1.6117069   -3.1339583 
H    -5.1983995    2.4839239   -0.9598506 
H    -6.5280030    1.4093095   -2.7630858 
C    -2.0450993   -2.8085968    1.9127378 
C    -2.0896135   -3.4570297    3.1514418 
C    -1.8544979   -2.7364431    4.3340195 
C    -1.5706999   -1.3644310    4.2772643 
C    -1.5179919   -0.7111382    3.0377929 
C    -1.7489966   -1.4318074    1.8532489 
C    -3.5406967   -0.8548191   -0.2199322 
C    -4.4754928   -0.0778535    0.4962349 
C    -5.8479273   -0.3099901    0.3551219 
C    -6.3035963   -1.3071270   -0.5205955 
C    -5.3798669   -2.0805074   -1.2373167 
C    -4.0017146   -1.8684007   -1.0811006 
C    -0.6953500   -1.4895570   -0.9228309 
C    -1.0188447   -1.4977485   -2.2980402 
C    -0.1641089   -2.1119089   -3.2195745 
C     1.0219519   -2.7203793   -2.7914831 
C     0.5325274   -2.0395017   -0.4791500 
C     1.3669363   -2.6799460   -1.4327190 
C     1.0388871   -2.0043188    0.9277599 
C     1.2043907   -3.2444607    1.5871207 
O     0.7444619   -4.3524987    0.9313612 
C     1.6366025   -5.4661568    0.7025891 
C     1.9481900   -5.5785035   -0.7939723 
C     2.9277643   -4.5251306   -1.3221981 
O     2.5455242   -3.1861303   -0.9538062 
C     1.7495010   -3.3144570    2.8787476 
C     2.1562739   -2.1392530    3.5182959 
C     2.0140821   -0.8991150    2.8820443 
C     1.4576046   -0.8225703    1.5907651 
C     2.2598679    0.5346349   -0.7954146 
C     3.5159503   -0.1039797   -0.7351940 
C     4.2313526   -0.3510132   -1.9136206 
C     3.6962361    0.0222567   -3.1561964 
C     2.4370057    0.6376148   -3.2225961 
C     1.7208888    0.8911105   -2.0464666 
C     2.1919899    1.9788721    1.8026669 
C     1.5283520    2.4407685    2.9603955 
C     2.1826349    3.2927615    3.8583864 
C     3.4955974    3.7135341    3.5937234 
C     4.1430333    3.2889327    2.4251982 
C     3.4988863    2.4214357    1.5306397 
H    -2.2188657   -3.3749212    0.9917720 
H    -2.3056950   -4.5294381    3.1940798 
H    -1.8930821   -3.2468502    5.3020065 
H    -1.3854857   -0.8017923    5.1980836 
H    -1.2867930    0.3592990    2.9833734 
H    -4.1205043    0.7056072    1.1768968 
H    -6.5630865    0.2949098    0.9222019 
H    -7.3774464   -1.4842252   -0.6399728 
H    -5.7298308   -2.8663079   -1.9148344 
H    -3.2952735   -2.5065648   -1.6192324 
H    -1.9360272   -1.0165772   -2.6473590 
H    -0.4235181   -2.1142406   -4.2833389 
H     1.6936322   -3.1965628   -3.5110258 
H     1.1125256   -6.3725746    1.0507389 
H     2.5595047   -5.3438787    1.2999068 
H     0.9933776   -5.5212762   -1.3477953 
H     2.3788558   -6.5768023   -0.9987397 
H     3.9235339   -4.6486064   -0.8659268 
H     3.0451457   -4.6170456   -2.4191419 
H     1.8359418   -4.2848365    3.3768360 
H     2.5825845   -2.1862213    4.5255697 
H     2.3467055    0.0084023    3.3918889 
H     3.9176428   -0.4355880    0.2278539 
H     5.2035272   -0.8516862   -1.8616913 
H     4.2559341   -0.1794729   -4.0755856 
H     2.0053973    0.9070663   -4.1920965 
H     0.7196632    1.3347552   -2.0895814 
H     0.4969015    2.1248948    3.1584752 
H     1.6651715    3.6349661    4.7606863 
H     4.0070413    4.3846932    4.2914056 
H     5.1565152    3.6370734    2.2013986 
H     4.0108996    2.1039716    0.6179678 
