203
Energy =
C     2.2773580    1.3970927    2.6852989 
C     1.0814098    2.0807623    3.0698360 
C    -0.0353199    1.3527466    3.5430191 
H     0.9740882    3.1498727    2.8476475 
Pd    0.5713949    0.6858396    1.4479543 
P    -1.5409259    0.4018368    0.5160630 
P     1.6539034   -0.5783467   -0.1764018 
H     2.5153567    0.4675392    3.2207648 
H     0.1674665    0.3368111    3.9174399 
C     5.7014685    3.2969250    0.8907064 
C     5.8397200    2.1050700    1.6164921 
C     4.7177911    1.4937328    2.1876471 
C     3.4318830    2.0613616    2.0504986 
C     3.3049064    3.2561673    1.3032744 
C     4.4270187    3.8683007    0.7363700 
H     6.5779818    3.7778117    0.4442526 
H     6.8258022    1.6457629    1.7414877 
H     4.8340718    0.5610498    2.7472196 
H     2.3158688    3.7035096    1.1533741 
H     4.3085936    4.7949719    0.1658522 
C    -3.9020321    2.7886553    4.7435501 
C    -2.9532838    3.6980756    4.2488174 
C    -1.6898732    3.2537672    3.8480569 
C    -1.3481926    1.8846775    3.9329046 
C    -2.3205202    0.9801532    4.4202885 
C    -3.5833489    1.4250728    4.8215877 
H    -4.8854108    3.1429992    5.0683529 
H    -3.2016178    4.7613100    4.1745475 
H    -0.9627251    3.9793059    3.4724928 
H    -2.0780602   -0.0839960    4.4804879 
H    -4.3184253    0.7066992    5.1991237 
C    -6.8165627    3.2949910   -0.0121549 
C    -6.1432993    3.1312989    1.3766444 
C    -6.5675406    4.3072971    2.2895579 
C    -6.6362148    1.8150373    2.0194113 
C    -4.6172811    3.1209921    1.1582673 
C    -3.8932897    1.9136607    1.1025519 
C    -3.9155460    4.3195339    0.9285563 
C    -2.5276074    4.3645256    0.6820000 
C    -1.8217890    5.7185683    0.4706761 
C    -2.1716951    6.6862512    1.6292643 
C    -2.3055137    6.3211420   -0.8739021 
C    -0.2861325    5.5689179    0.4228581 
C    -1.8414546    3.1415702    0.6213720 
C    -2.5241001    1.9216933    0.8063574 
C    -2.4522109   -1.0504639    1.1436614 
C    -3.6863018   -1.4346893    0.5839437 
C    -4.3850039   -2.5341033    1.1038899 
C    -5.7686191   -2.9524484    0.5702797 
C    -6.8237955   -2.6775345    1.6734989 
C    -5.7687579   -4.4621232    0.2218616 
C    -6.1575856   -2.1606505   -0.6964623 
C    -3.7944413   -3.2508784    2.1702676 
C    -2.5425648   -2.9200572    2.7180316 
C    -1.8818913   -1.7952996    2.1860105 
C    -1.8721125   -3.7408165    3.8394593 
C    -1.5325212   -2.8166651    5.0358370 
C    -2.7785888   -4.8803750    4.3488137 
C    -0.5619993   -4.3603661    3.2897446 
C    -1.5804810    0.2440206   -1.3229709 
C    -2.1298869    1.2677276   -2.1221418 
C    -2.1239386    1.1461849   -3.5157803 
C    -1.5702220    0.0201561   -4.1337633 
C    -1.0255631   -0.9073751   -1.9266883 
C    -1.0281689   -1.0058653   -3.3433294 
C    -0.5157636   -2.0986772   -1.1804352 
C    -1.2757207   -3.2907286   -1.3157298 
O    -2.4707122   -3.1500813   -1.9620478 
C    -3.0365532   -4.2605759   -2.6775702 
C    -2.2895335   -4.5499459   -3.9811171 
C    -2.2719380   -3.3610383   -4.9762905 
C    -0.9127214   -2.6711234   -5.1087435 
O    -0.4481384   -2.1315871   -3.8589649 
C    -0.8079490   -4.5074757   -0.7939653 
C     0.4281279   -4.5419531   -0.1406453 
C     1.1840783   -3.3766972    0.0261393 
C     0.7154214   -2.1474832   -0.4815868 
C     1.9020103    0.1679743   -1.8222318 
C     1.7183574    1.5447139   -2.0006684 
C     1.9706455    2.1425965   -3.2539220 
C     1.7324529    3.6540285   -3.4435015 
C     2.1791642    4.1491048   -4.8345767 
C     2.5260573    4.4379599   -2.3694815 
C     0.2180620    3.9410038   -3.2829495 
C     2.4259364    1.3106378   -4.2903989 
C     2.6171298   -0.0822193   -4.1378297 
C     2.3333750   -0.6474383   -2.8880753 
C     3.1487203   -0.9190873   -5.3164654 
C     4.5915971   -0.4540131   -5.6440917 
C     2.2416848   -0.7093232   -6.5548026 
C     3.1800716   -2.4252163   -4.9811088 
C     3.3113716   -1.1205464    0.3910011 
C     4.4658598   -0.9317018   -0.3819914 
C     5.7253454   -1.3432826    0.0933802 
C     6.9670247   -1.1797369   -0.8058771 
C     8.2789904   -1.2563907    0.0051454 
C     6.9338043    0.1783944   -1.5507482 
C     6.9476062   -2.3286983   -1.8497974 
C     5.7865385   -1.9570466    1.3606485 
C     4.6445824   -2.1545646    2.1651954 
C     3.4094368   -1.7066638    1.6663883 
C     4.6943587   -2.8443785    3.5436664 
C     4.0840648   -1.9085159    4.6184384 
C     6.1348128   -3.1981221    3.9673053 
C     3.8624756   -4.1521513    3.4713966 
H    -7.9166802    3.3071157    0.0906308 
H    -6.5391317    2.4614987   -0.6816356 
H    -6.5048181    4.2378264   -0.4950398 
H    -7.6566430    4.2716616    2.4662861 
H    -6.3431829    5.2881626    1.8370614 
H    -6.0567400    4.2556568    3.2658831 
H    -6.4855296    0.9478743    1.3529690 
H    -7.7180947    1.8834346    2.2256895 
H    -6.1146922    1.6119954    2.9709770 
H    -4.3956916    0.9611631    1.2791633 
H    -4.4703662    5.2619690    0.9534713 
H    -1.6729102    7.6591421    1.4744717 
H    -1.8333270    6.2796792    2.5984399 
H    -3.2560973    6.8756361    1.6985725 
H    -1.8179110    7.2952943   -1.0584393 
H    -2.0625298    5.6466128   -1.7134002 
H    -3.3975213    6.4819591   -0.8708753 
H     0.1052139    5.1250199    1.3560324 
H     0.0438595    4.9446746   -0.4236238 
H     0.1826966    6.5604677    0.3024540 
H    -0.7649704    3.1136947    0.4214512 
H    -4.0788435   -0.8743201   -0.2673843 
H    -6.8425989   -1.6057430    1.9383904 
H    -7.8309831   -2.9660164    1.3229782 
H    -6.6054504   -3.2509117    2.5912222 
H    -6.7539402   -4.7598025   -0.1785544 
H    -5.0026698   -4.6881400   -0.5387967 
H    -5.5668224   -5.0905304    1.1059412 
H    -6.2590323   -1.0802868   -0.4904198 
H    -5.4091463   -2.2890966   -1.4980092 
H    -7.1313228   -2.5167399   -1.0745151 
H    -4.3360230   -4.1087976    2.5756580 
H    -0.8970050   -1.4968766    2.5629742 
H    -2.4403404   -2.3295558    5.4324382 
H    -1.0728954   -3.4021763    5.8515689 
H    -0.8129522   -2.0286839    4.7513865 
H    -3.7259345   -4.4936560    4.7640306 
H    -2.2625361   -5.4352874    5.1512121 
H    -3.0177101   -5.6015402    3.5476159 
H     0.1276921   -3.5850833    2.9134385 
H    -0.0423751   -4.9277152    4.0829094 
H    -0.7763362   -5.0454848    2.4526385 
H    -2.5709533    2.1527522   -1.6584584 
H    -2.5575022    1.9415387   -4.1306735 
H    -1.5616577   -0.0563252   -5.2239477 
H    -4.0722916   -3.9446665   -2.8829646 
H    -3.0859512   -5.1600965   -2.0364853 
H    -2.7800254   -5.4252600   -4.4443858 
H    -1.2568062   -4.8644841   -3.7400449 
H    -2.5520023   -3.7094296   -5.9870648 
H    -3.0281288   -2.6067034   -4.6879752 
H    -0.9409308   -1.8904373   -5.8907640 
H    -0.1312134   -3.3942051   -5.3937659 
H    -1.3952871   -5.4226189   -0.9024891 
H     0.8076886   -5.4917969    0.2497088 
H     2.1496814   -3.4333396    0.5331458 
H     1.3712998    2.1443851   -1.1518008 
H     3.2558147    3.9715407   -5.0039091 
H     2.0013611    5.2354711   -4.9154162 
H     1.6126464    3.6596901   -5.6462935 
H     2.2109308    4.1637144   -1.3498381 
H     3.6075061    4.2334364   -2.4518284 
H     2.3651707    5.5240318   -2.4917215 
H     0.0226486    5.0263244   -3.3513820 
H    -0.1634100    3.5814166   -2.3121660 
H    -0.3596233    3.4311155   -4.0720585 
H     2.6425864    1.7559381   -5.2643648 
H     2.4402212   -1.7216301   -2.7212021 
H     4.6198841    0.6133463   -5.9242431 
H     5.2546651   -0.5945421   -4.7719852 
H     5.0014025   -1.0380812   -6.4875221 
H     2.6020244   -1.3208382   -7.4009764 
H     2.2310990    0.3436101   -6.8845359 
H     1.2032830   -1.0054962   -6.3292057 
H     2.1793844   -2.7950750   -4.6986756 
H     3.8750229   -2.6439643   -4.1510077 
H     3.5248643   -2.9962881   -5.8603768 
H     4.3818408   -0.4563147   -1.3613598 
H     8.4241679   -2.2468199    0.4701109 
H     8.3034537   -0.4924905    0.8027702 
H     9.1403795   -1.0803302   -0.6617964 
H     6.0835638    0.2486790   -2.2507962 
H     6.8594657    1.0210254   -0.8428169 
H     7.8565774    0.3002603   -2.1444236 
H     6.0296446   -2.2871454   -2.4631222 
H     6.9810887   -3.3138720   -1.3526366 
H     7.8179240   -2.2506421   -2.5261790 
H     6.7555538   -2.2891265    1.7349253 
H     2.5024110   -1.8186474    2.2722657 
H     4.1198145   -2.3919542    5.6106487 
H     3.0262754   -1.6725628    4.4044042 
H     4.6425223   -0.9579986    4.6811249 
H     6.6071552   -3.9029902    3.2609785 
H     6.1226685   -3.6806657    4.9596866 
H     6.7708486   -2.2983380    4.0391759 
H     3.8828705   -4.6749870    4.4444086 
H     2.8065026   -3.9481553    3.2200676 
H     4.2703609   -4.8333966    2.7042545 
