203
Energy =
C     2.2763142    1.4261562    2.6752115 
C     1.0323055    1.9301458    3.1742055 
C     0.0348540    1.0327203    3.6194921 
H     0.7918911    2.9946697    3.0614941 
Pd    0.6020310    0.6443519    1.4457670 
P    -1.5218122    0.2620170    0.5578758 
P     1.7175727   -0.4098861   -0.3022949 
H     2.6468713    0.4912865    3.1173317 
H     0.3742884    0.0175770    3.8796720 
C     5.3595245    3.8542205    0.8979040 
C     5.6663593    2.6145357    1.4773185 
C     4.6542952    1.8312464    2.0437570 
C     3.3116847    2.2706657    2.0494215 
C     3.0147448    3.5171232    1.4490044 
C     4.0274930    4.3008001    0.8872125 
H     6.1504874    4.4704339    0.4579764 
H     6.6998613    2.2550778    1.4966123 
H     4.9030215    0.8639415    2.4898079 
H     1.9792321    3.8724620    1.4111575 
H     3.7776690    5.2654205    0.4337278 
C    -3.9302703    1.8445400    5.0516823 
C    -3.4354456    0.5327768    5.0057394 
C    -2.1404971    0.2929391    4.5371727 
C    -1.3142516    1.3551214    4.1003976 
C    -1.8316377    2.6701019    4.1438740 
C    -3.1256862    2.9097951    4.6145549 
H    -4.9392154    2.0372951    5.4299726 
H    -4.0571326   -0.3045380    5.3394383 
H    -1.7583297   -0.7319167    4.5016500 
H    -1.2180556    3.5126018    3.8127603 
H    -3.5111448    3.9338313    4.6387852 
C    -0.6603173    5.5066702    0.9341866 
C    -2.2001088    5.5298246    1.0363885 
C    -2.5825958    6.3354505    2.3040173 
C    -2.7732983    6.2340426   -0.2205539 
C    -2.7949847    4.1102686    1.1194734 
C    -2.0240861    2.9549809    0.9113435 
C    -4.1651953    3.9352499    1.4014228 
C    -4.7684855    2.6700500    1.5308371 
C    -6.2813326    2.5507306    1.8014648 
C    -6.7248234    3.5400552    2.9069834 
C    -6.6729557    1.1225309    2.2408600 
C    -7.0262861    2.8914095    0.4833506 
C    -3.9601959    1.5334119    1.3357764 
C    -2.6069766    1.6740022    0.9980113 
C    -2.2932496   -1.2976921    1.1098960 
C    -1.5847113   -2.0801891    2.0371854 
C    -2.1193847   -3.2851227    2.5179178 
C    -1.3696273   -4.1664435    3.5352145 
C    -1.2758620   -5.6173640    2.9991958 
C    -2.1482705   -4.1561980    4.8757597 
C     0.0651044   -3.6536934    3.7871727 
C    -3.3934446   -3.6614842    2.0468711 
C    -4.1158563   -2.9158614    1.0929217 
C    -3.5348843   -1.7290435    0.6119412 
C    -5.5117692   -3.3862340    0.6394601 
C    -5.4673421   -4.8779592    0.2243770 
C    -6.4925140   -3.2117714    1.8288450 
C    -6.0316916   -2.5643680   -0.5595436 
C    -1.6234531    0.2126716   -1.2832654 
C    -2.2816943    1.2297924   -2.0029573 
C    -2.3382533    1.1693456   -3.3999660 
C    -1.7454939    0.1102163   -4.0959850 
C    -1.0166626   -0.8658666   -1.9668890 
C    -1.0918601   -0.9078932   -3.3828269 
C    -0.3900370   -2.0412077   -1.2871808 
C    -1.0872078   -3.2733484   -1.4034369 
O    -2.3104986   -3.1963572   -2.0053963 
C    -2.8317769   -4.3268669   -2.7230672 
C    -2.1358976   -4.5150357   -4.0721692 
C    -2.2684564   -3.2955376   -5.0205712 
C    -0.9747862   -2.5021903   -5.2138208 
O    -0.4662978   -1.9691073   -3.9775736 
C    -0.5446162   -4.4612974   -0.8886342 
C     0.7060856   -4.4280083   -0.2630574 
C     1.4076492   -3.2252512   -0.1275976 
C     0.8641563   -2.0237479   -0.6285873 
C     1.8041745    0.4601467   -1.9030054 
C     2.2047668   -0.2354294   -3.0622143 
C     2.3408987    0.4451360   -4.2795176 
C     2.8096011   -0.2541060   -5.5694821 
C     3.0263559   -1.7665960   -5.3542714 
C     4.1482130    0.3793250   -6.0293276 
C     1.7402522   -0.0604191   -6.6741495 
C     2.0398719    1.8265210   -4.3013805 
C     1.6148057    2.5395385   -3.1684470 
C     1.5093463    1.8288418   -1.9540772 
C     1.2513429    4.0371601   -3.2155960 
C    -0.2653450    4.1878468   -2.9346221 
C     1.5607712    4.6731269   -4.5864451 
C     2.0552452    4.7964946   -2.1321499 
C     3.4400108   -0.8642626    0.1420552 
C     4.5228295   -0.6269587   -0.7182775 
C     5.8290500   -0.9964330   -0.3438899 
C     7.0382634   -0.7817142   -1.2765022 
C     7.7447716   -2.1413675   -1.5142103 
C     8.0277687    0.2101434   -0.6144051 
C     6.6154527   -0.2104041   -2.6469412 
C     6.0076841   -1.5910142    0.9195270 
C     4.9434618   -1.8312061    1.8141824 
C     3.6549110   -1.4508451    1.4054516 
C     5.2162787   -2.4891358    3.1812480 
C     3.9312895   -2.6248510    4.0253737 
C     6.2330475   -1.6290583    3.9747144 
C     5.8022928   -3.9057945    2.9489696 
H    -0.2713751    6.5388608    0.9068222 
H    -0.3115256    4.9991419    0.0197591 
H    -0.2075316    5.0024791    1.8070430 
H    -2.1519550    7.3509017    2.2528322 
H    -2.1955507    5.8450280    3.2147519 
H    -3.6749443    6.4427261    2.4130801 
H    -2.5066675    5.6768581   -1.1354537 
H    -2.3692090    7.2586848   -0.3072428 
H    -3.8738250    6.3047582   -0.1732793 
H    -0.9566350    3.0299450    0.6772186 
H    -4.7861799    4.8256086    1.5383221 
H    -7.8043097    3.4223566    3.1062315 
H    -6.5588802    4.5911735    2.6159194 
H    -6.1780111    3.3549241    3.8465985 
H    -7.7485952    1.0892356    2.4847922 
H    -6.4964562    0.3831060    1.4403808 
H    -6.1067885    0.8047715    3.1339488 
H    -6.7924283    3.9171590    0.1481752 
H    -6.7341600    2.1948354   -0.3224031 
H    -8.1192861    2.8174402    0.6275051 
H    -4.3827112    0.5332324    1.4405558 
H    -0.5968210   -1.7356626    2.3547812 
H    -0.7431502   -5.6397278    2.0331714 
H    -0.7274157   -6.2539978    3.7159782 
H    -2.2730592   -6.0656174    2.8507313 
H    -1.6362558   -4.7866207    5.6246100 
H    -2.2211158   -3.1310600    5.2807266 
H    -3.1739579   -4.5439525    4.7487316 
H     0.6479967   -3.6151651    2.8500006 
H     0.0706415   -2.6459029    4.2403815 
H     0.5867048   -4.3288440    4.4871151 
H    -3.8387607   -4.5848752    2.4314000 
H    -4.0309038   -1.1397867   -0.1623808 
H    -5.1714840   -5.5326791    1.0616265 
H    -6.4650274   -5.2067518   -0.1159072 
H    -4.7514891   -5.0353268   -0.5999743 
H    -6.1765531   -3.8120980    2.6999471 
H    -7.5089029   -3.5356339    1.5412735 
H    -6.5410706   -2.1547219    2.1440073 
H    -5.3337236   -2.6122375   -1.4137925 
H    -7.0073085   -2.9611395   -0.8888192 
H    -6.1804438   -1.5021650   -0.2969831 
H    -2.7590369    2.0585482   -1.4746202 
H    -2.8551460    1.9580923   -3.9562954 
H    -1.7928644    0.0797011   -5.1874144 
H    -3.8981750   -4.0863805   -2.8633003 
H    -2.7767665   -5.2456055   -2.1108088 
H    -2.5775944   -5.4124382   -4.5422214 
H    -1.0698384   -4.7501281   -3.8937844 
H    -2.5898075   -3.6289121   -6.0240982 
H    -3.0552027   -2.6086824   -4.6557627 
H    -1.1137241   -1.7010427   -5.9626732 
H    -0.1632241   -3.1539356   -5.5764692 
H    -1.0895808   -5.4046700   -0.9727624 
H     1.1420760   -5.3547058    0.1243560 
H     2.3893822   -3.2284019    0.3510537 
H     2.3964653   -1.3087297   -2.9953424 
H     3.8246438   -1.9620688   -4.6163803 
H     3.3294076   -2.2393794   -6.3044301 
H     2.1035336   -2.2588218   -5.0023311 
H     4.0370448    1.4574954   -6.2380108 
H     4.9243773    0.2613964   -5.2535057 
H     4.5048345   -0.1091825   -6.9537522 
H     2.0471075   -0.5781883   -7.6003010 
H     1.5917750    1.0051449   -6.9192799 
H     0.7703691   -0.4723463   -6.3492408 
H     2.1396979    2.3590274   -5.2502361 
H     1.1889779    2.3327027   -1.0351617 
H    -0.8583410    3.6910963   -3.7207474 
H    -0.5478058    3.7305773   -1.9708987 
H    -0.5464221    5.2559647   -2.9060140 
H     1.3012936    5.7456752   -4.5637775 
H     0.9736422    4.2078220   -5.3976621 
H     2.6323733    4.5918783   -4.8402597 
H     3.1411488    4.6875629   -2.2966997 
H     1.8320232    4.4191614   -1.1214154 
H     1.8044732    5.8720790   -2.1535895 
H     4.3419672   -0.1500764   -1.6825720 
H     7.0511964   -2.8692590   -1.9707854 
H     8.1262238   -2.5768071   -0.5747038 
H     8.6045983   -2.0085395   -2.1946263 
H     7.5526858    1.1961574   -0.4755548 
H     8.3667708   -0.1505674    0.3723498 
H     8.9201452    0.3427729   -1.2516828 
H     6.1297243    0.7765942   -2.5507921 
H     5.9199339   -0.8891908   -3.1715569 
H     7.5057277   -0.0831839   -3.2865415 
H     7.0194032   -1.8798824    1.2231821 
H     2.7976282   -1.6067896    2.0670281 
H     4.1714588   -3.0917120    4.9958693 
H     3.1767272   -3.2590251    3.5281694 
H     3.4738135   -1.6409146    4.2359331 
H     7.1897194   -1.5235459    3.4352580 
H     6.4482472   -2.0967105    4.9518370 
H     5.8333582   -0.6163898    4.1609989 
H     6.0085604   -4.3986306    3.9158132 
H     5.0921570   -4.5349536    2.3838063 
H     6.7477733   -3.8666747    2.3811392 
