203
Energy =
C     2.2639792    1.3570912    2.6520876 
C     1.0768381    2.0487127    3.0515364 
C    -0.0434520    1.3210082    3.5146891 
H     0.9812945    3.1231852    2.8512699 
Pd    0.5500065    0.6904809    1.4065400 
P    -1.5742094    0.4327948    0.4650506 
P     1.6196300   -0.6052515   -0.1979180 
H     2.4940251    0.4198214    3.1768438 
H     0.1530623    0.2959708    3.8662438 
C     5.7063684    3.2589454    0.8953983 
C     4.4340345    3.8321795    0.7312788 
C     3.3060219    3.2188019    1.2851768 
C     3.4248811    2.0203811    2.0277340 
C     4.7086567    1.4502386    2.1738425 
C     5.8366336    2.0636489    1.6170704 
H     6.5876114    3.7411531    0.4598168 
H     4.3220404    4.7612237    0.1631948 
H     2.3186368    3.6671842    1.1285262 
H     4.8187721    0.5149643    2.7302016 
H     6.8213322    1.6036430    1.7509492 
C    -3.8802069    2.7715393    4.7779883 
C    -3.5776188    1.4022993    4.8272978 
C    -2.3248360    0.9494655    4.4033335 
C    -1.3496048    1.8538765    3.9200512 
C    -1.6785629    3.2270070    3.8571434 
C    -2.9309377    3.6789300    4.2813708 
H    -4.8513017    3.1336364    5.1299874 
H    -4.3171409    0.6871029    5.2019728 
H    -2.0917068   -0.1199250    4.4413940 
H    -0.9476387    3.9492486    3.4829488 
H    -3.1682406    4.7459699    4.2282987 
C    -2.1486919    6.4197906   -0.7897102 
C    -1.7105803    5.7514458    0.5396380 
C    -0.1798389    5.5556635    0.5113707 
C    -2.0533862    6.6860508    1.7272087 
C    -2.4630378    4.4140540    0.6861518 
C    -1.8128503    3.1742158    0.6201236 
C    -3.8646892    4.4090789    0.8676323 
C    -4.6133473    3.2281493    1.0056403 
C    -6.1515255    3.2255222    1.1142973 
C    -6.7262413    4.6444401    1.3060576 
C    -6.6111373    2.3497060    2.3053583 
C    -6.7181402    2.6351156   -0.2050804 
C    -3.9200754    1.9989849    0.9584660 
C    -2.5381835    1.9686928    0.7433193 
C    -2.4691449   -1.0124725    1.1358218 
C    -3.7487881   -1.3938545    0.7075832 
C    -4.4112829   -2.4791691    1.3202052 
C    -5.8490043   -2.8324124    0.8887209 
C    -6.7491694   -1.5806571    1.0517710 
C    -6.4507335   -3.9738768    1.7345196 
C    -5.8390474   -3.2736615   -0.5957115 
C    -3.7208109   -3.1939720    2.3153867 
C    -2.4048112   -2.8742945    2.7193586 
C    -1.7999067   -1.7616928    2.1233720 
C    -1.6899979   -3.7164319    3.7931859 
C    -1.7007839   -5.2086222    3.3749939 
C    -0.2201028   -3.2787707    3.9782658 
C    -2.4349234   -3.5480073    5.1422849 
C    -1.6086629    0.2522572   -1.3702639 
C    -2.1337140    1.2764112   -2.1845600 
C    -2.1078765    1.1428380   -3.5772193 
C    -1.5552049    0.0067775   -4.1782329 
C    -1.0542847   -0.9084130   -1.9571642 
C    -1.0341303   -1.0179710   -3.3717020 
C    -0.5756162   -2.0973799   -1.1868837 
C    -1.3675341   -3.2714020   -1.2949071 
O    -2.5390702   -3.1269737   -1.9823239 
C    -3.0855092   -4.2439260   -2.7053319 
C    -2.2911936   -4.5547051   -3.9752402 
C    -2.2579142   -3.3880204   -4.9963383 
C    -0.8968830   -2.7012540   -5.1187027 
O    -0.4514972   -2.1514758   -3.8664132 
C    -0.9567995   -4.4748622   -0.6994816 
C     0.2598282   -4.5185008   -0.0103816 
C     1.0569032   -3.3750340    0.1096221 
C     0.6423168   -2.1562429   -0.4666334 
C     1.8783963    0.1254246   -1.8481538 
C     2.3117101   -0.6917314   -2.9118362 
C     2.6078679   -0.1258402   -4.1586695 
C     3.1499856   -0.9620820   -5.3330454 
C     2.2607484   -0.7455509   -6.5829919 
C     3.1717780   -2.4691527   -5.0014645 
C     4.5991340   -0.5017214   -5.6399352 
C     2.4246709    1.2682659   -4.3114091 
C     1.9676661    2.1019974   -3.2770892 
C     1.7048725    1.5037381   -2.0266066 
C     1.7482768    3.6170045   -3.4612444 
C     2.5764109    4.3846044   -2.4012661 
C     0.2433104    3.9322775   -3.2688038 
C     2.1749780    4.1060120   -4.8605600 
C     3.2679934   -1.1703214    0.3756736 
C     3.3598889   -1.7332018    1.6627451 
C     4.5901677   -2.1815546    2.1719849 
C     4.6343591   -2.8517136    3.5604194 
C     3.9280960   -1.9528619    4.6074295 
C     6.0789943   -3.1086393    4.0373042 
C     3.8894933   -4.2097808    3.4679329 
C     5.7347678   -2.0143569    1.3633333 
C     5.6793044   -1.4307504    0.0823990 
C     4.4243756   -1.0128447   -0.4008221 
C     6.9181147   -1.2956782   -0.8255445 
C     8.2337649   -1.4882683   -0.0418464 
C     6.9512522    0.0995269   -1.4992928 
C     6.8209722   -2.3866148   -1.9256972 
H    -1.6240406    7.3821483   -0.9283371 
H    -3.2341001    6.6197088   -0.8003662 
H    -1.9133138    5.7686710   -1.6496004 
H     0.3210813    6.5353845    0.4298647 
H     0.1448011    4.9471260   -0.3489690 
H     0.1824412    5.0721886    1.4364915 
H    -3.1340812    6.8983561    1.7879572 
H    -1.5295238    7.6514902    1.6139526 
H    -1.7388791    6.2379360    2.6859141 
H    -0.7293843    3.1173287    0.4692144 
H    -4.3852327    5.3690895    0.9002164 
H    -7.8237902    4.5894993    1.4073925 
H    -6.5076910    5.2987318    0.4440017 
H    -6.3269325    5.1232264    2.2178202 
H    -7.7141568    2.3085514    2.3382829 
H    -6.2400903    1.3141303    2.2284781 
H    -6.2514126    2.7674869    3.2594089 
H    -6.4019758    3.2397793   -1.0730929 
H    -6.3665254    1.6008191   -0.3656800 
H    -7.8223942    2.6192373   -0.1758358 
H    -4.4690648    1.0613458    1.0732533 
H    -4.2276877   -0.8489986   -0.1120570 
H    -6.4121718   -0.7466166    0.4126284 
H    -7.7896748   -1.8177947    0.7674420 
H    -6.7487394   -1.2305857    2.0988558 
H    -7.4819211   -4.1791708    1.3992060 
H    -5.8750614   -4.9102931    1.6288684 
H    -6.4932310   -3.7097282    2.8059254 
H    -5.4017271   -2.4986176   -1.2479597 
H    -5.2446637   -4.1950226   -0.7168513 
H    -6.8680071   -3.4775112   -0.9420380 
H    -4.2165317   -4.0423283    2.7935017 
H    -0.7838890   -1.4602328    2.3940903 
H    -1.1929906   -5.3425295    2.4046835 
H    -1.1779445   -5.8205490    4.1313777 
H    -2.7279772   -5.6005143    3.2810387 
H     0.3429999   -3.3544149    3.0313532 
H     0.2740397   -3.9276621    4.7214856 
H    -0.1422198   -2.2397462    4.3466904 
H    -3.4858357   -3.8768449    5.0665682 
H    -1.9463329   -4.1487895    5.9300573 
H    -2.4321115   -2.4911012    5.4636415 
H    -2.5693055    2.1707711   -1.7329787 
H    -2.5239590    1.9371098   -4.2054860 
H    -1.5299682   -0.0775052   -5.2676049 
H    -4.1091749   -3.9246410   -2.9563657 
H    -3.1662674   -5.1343039   -2.0545425 
H    -2.7550889   -5.4468335   -4.4337917 
H    -1.2631912   -4.8496141   -3.6926138 
H    -2.5227894   -3.7566699   -6.0040028 
H    -3.0175925   -2.6274334   -4.7349084 
H    -0.9129607   -1.9275381   -5.9079308 
H    -0.1121813   -3.4277532   -5.3855493 
H    -1.5751083   -5.3725958   -0.7762221 
H     0.5957416   -5.4601423    0.4362326 
H     2.0133157   -3.4419816    0.6324192 
H     2.4112707   -1.7666738   -2.7456297 
H     1.2181425   -1.0387914   -6.3732290 
H     2.6306818   -1.3557990   -7.4259071 
H     2.2583162    0.3083310   -6.9098265 
H     3.8562576   -2.6929951   -4.1642339 
H     2.1667845   -2.8360833   -4.7311397 
H     3.5242061   -3.0393379   -5.8782461 
H     5.0187709   -1.0865458   -6.4780002 
H     5.2493039   -0.6450779   -4.7585842 
H     4.6349336    0.5657705   -5.9187110 
H     2.6515656    1.7132459   -5.2831949 
H     1.3580988    2.1045862   -1.1783019 
H     2.2746495    4.1127726   -1.3769535 
H     3.6523655    4.1607742   -2.5034038 
H     2.4330741    5.4737573   -2.5185426 
H     0.0679375    5.0211109   -3.3360169 
H    -0.1246162    3.5836913   -2.2887346 
H    -0.3610528    3.4324909   -4.0441225 
H     1.5895657    3.6202092   -5.6610256 
H     3.2467742    3.9185714   -5.0488259 
H     2.0062588    5.1939417   -4.9399415 
H     2.4526341   -1.8217483    2.2713186 
H     2.8617671   -1.7968006    4.3657365 
H     4.4152420   -0.9642035    4.6767157 
H     3.9717136   -2.4250778    5.6045766 
H     6.6144171   -3.8045097    3.3682650 
H     6.6587130   -2.1707787    4.1000387 
H     6.0634440   -3.5635637    5.0425965 
H     4.3697943   -4.8697105    2.7245836 
H     2.8352069   -4.0697029    3.1705874 
H     3.9008078   -4.7232974    4.4461339 
H     6.6999889   -2.3472565    1.7463533 
H     4.3475312   -0.5560759   -1.3899289 
H     9.0942233   -1.3415760   -0.7170565 
H     8.3196387   -2.5040353    0.3816479 
H     8.3215118   -0.7593187    0.7836389 
H     6.0809437    0.2644876   -2.1575224 
H     7.8577899    0.1915019   -2.1229886 
H     6.9614460    0.9055064   -0.7468066 
H     7.6875903   -2.3241235   -2.6083071 
H     6.8022986   -3.3961823   -1.4793362 
H     5.9018400   -2.2621868   -2.5255411 
