104
Energy =
C     0.0825364    3.6585058   -0.4817535 
C    -1.3117692    3.5149904   -0.7431634 
C    -2.2137164    3.0997372    0.2622070 
H    -1.6696258    3.5669496   -1.7795280 
Pd   -0.5482817    1.5615527   -0.0309150 
P    -1.6161064   -0.5017688    0.2563244 
P     1.5977746    0.6499115    0.2034187 
H     0.3783796    3.9627166    0.5317790 
H    -1.8805594    3.1818185    1.3095360 
C     3.0554679    4.4438483   -3.4970696 
C     1.8422260    3.8329494   -3.8578355 
C     0.8683275    3.5755988   -2.8891789 
C     1.0829255    3.9238839   -1.5341927 
C     2.3059793    4.5392140   -1.1879437 
C     3.2811130    4.7970444   -2.1592870 
H     3.8184245    4.6419056   -4.2569073 
H     1.6595063    3.5512677   -4.9001542 
H    -0.0639966    3.0818270   -3.1859302 
H     2.4912083    4.8137138   -0.1440031 
H     4.2223332    5.2737543   -1.8665490 
C    -6.4559128    2.6083498   -0.2063205 
C    -5.7869655    2.0327745    0.8858075 
C    -4.4076565    2.2031492    1.0312931 
C    -3.6643584    2.9375966    0.0785523 
C    -4.3512607    3.5141868   -1.0145024 
C    -5.7345450    3.3546862   -1.1507561 
H    -7.5376281    2.4809309   -0.3167396 
H    -6.3432370    1.4457573    1.6232608 
H    -3.8871543    1.7420952    1.8783275 
H    -3.8064633    4.1191217   -1.7466190 
H    -6.2540453    3.8209422   -1.9943392 
C     1.7136816    0.1473065   -2.5491385 
C     2.2475339   -0.4257128   -3.7101950 
C     3.3997716   -1.2226936   -3.6328318 
C     4.0179303   -1.4508711   -2.3932857 
C     3.4886957   -0.8821877   -1.2287216 
C     2.3345874   -0.0748693   -1.3057077 
C     2.7872713    1.9026364    0.8319125 
C     4.0480111    2.1179565    0.2461906 
C     4.9043593    3.1020273    0.7642608 
C     4.5117331    3.8772412    1.8638199 
C     3.2490423    3.6752318    2.4464742 
C     2.3884920    2.6996619    1.9283755 
C     1.6821525   -0.7188181    1.4430193 
C     2.2884555   -0.5238271    2.7001227 
C     2.3459435   -1.5722476    3.6264947 
C     1.8172467   -2.8283237    3.3116843 
C     1.1265664   -1.9792361    1.1123341 
C     1.2227772   -3.0302685    2.0572345 
C     0.5228927   -2.3135752   -0.2140830 
C     1.2057512   -3.2765261   -0.9991914 
O     2.3912104   -3.7466013   -0.5066829 
C     2.5789303   -5.1699172   -0.3418809 
C     2.7012907   -5.4972720    1.1500476 
C     1.3783230   -5.4429383    1.9216661 
O     0.6527594   -4.2201989    1.6875285 
C     0.7158657   -3.6756640   -2.2518249 
C    -0.4858783   -3.1378048   -2.7240821 
C    -1.1958966   -2.2083220   -1.9543578 
C    -0.7018010   -1.7917513   -0.7013188 
C    -1.7300778   -1.1438499    1.9668378 
C    -1.9372112   -2.5153807    2.2215256 
C    -2.0377710   -2.9726852    3.5410379 
C    -1.9300749   -2.0703468    4.6108509 
C    -1.7159487   -0.7061092    4.3621385 
C    -1.6146923   -0.2427543    3.0433173 
C    -3.3241230   -0.5684278   -0.4172719 
C    -3.6024274    0.1813655   -1.5798511 
C    -4.8748992    0.1395565   -2.1611270 
C    -5.8874854   -0.6359609   -1.5763490 
C    -5.6232289   -1.3669326   -0.4092533 
C    -4.3481306   -1.3351030    0.1721155 
H     0.8040134    0.7544033   -2.5959374 
H     1.7584198   -0.2565199   -4.6748928 
H     3.8133393   -1.6746295   -4.5405836 
H     4.9064328   -2.0871267   -2.3298053 
H     3.9495498   -1.0919278   -0.2580033 
H     4.3584638    1.5322914   -0.6236553 
H     5.8808442    3.2658611    0.2970099 
H     5.1832615    4.6437228    2.2641108 
H     2.9332871    4.2823946    3.3011673 
H     1.3984933    2.5514858    2.3776785 
H     2.7376352    0.4392583    2.9529692 
H     2.8152375   -1.4084690    4.6019453 
H     1.8597211   -3.6462564    4.0362567 
H     3.5114418   -5.4368544   -0.8685571 
H     1.7418328   -5.7201848   -0.8107602 
H     3.4314311   -4.7970584    1.5950498 
H     3.1208618   -6.5144457    1.2645464 
H     0.6871474   -6.2275276    1.5730169 
H     1.5498938   -5.6011162    3.0037389 
H     1.2856804   -4.3937753   -2.8490145 
H    -0.8755510   -3.4450382   -3.6999507 
H    -2.1457551   -1.8160069   -2.3265878 
H    -1.9793892   -3.2280880    1.3916283 
H    -2.1852665   -4.0403213    3.7331495 
H    -2.0041480   -2.4323674    5.6416703 
H    -1.6190829   -0.0034171    5.1961329 
H    -1.4262937    0.8186085    2.8421634 
H    -2.8168065    0.8058834   -2.0226595 
H    -5.0816589    0.7288265   -3.0596934 
H    -6.8859894   -0.6600907   -2.0247328 
H    -6.4141283   -1.9644498    0.0559273 
H    -4.1574668   -1.9018823    1.0880194 
