104
Energy =
C     0.3083608    3.4727634   -0.6864560 
C    -1.1159083    3.4242907   -0.7208267 
C    -1.8747908    3.1298433    0.4336563 
H    -1.6306112    3.4543852   -1.6899005 
Pd   -0.3834198    1.4517453   -0.0196684 
P    -1.5622198   -0.5083586    0.5118238 
P     1.7206570    0.4115196   -0.0188493 
H     0.7798305    3.8009020    0.2499257 
H    -1.3766753    3.2294121    1.4117268 
C     2.8379384    3.8643287   -4.1492942 
C     1.5240715    3.3882051   -4.2981328 
C     0.6908526    3.2598816   -3.1834700 
C     1.1500526    3.6085543   -1.8907749 
C     2.4701687    4.0937712   -1.7587780 
C     3.3052613    4.2183929   -2.8757284 
H     3.4904567    3.9596682   -5.0232041 
H     1.1513031    3.1105772   -5.2897034 
H    -0.3234472    2.8673032   -3.3171529 
H     2.8409393    4.3742934   -0.7672911 
H     4.3258964    4.5938323   -2.7481291 
C    -6.1631393    2.9635054    0.6196111 
C    -5.3825210    2.3509309    1.6131665 
C    -3.9880888    2.4168390    1.5490059 
C    -3.3443844    3.0793117    0.4786359 
C    -4.1424393    3.6961716   -0.5121675 
C    -5.5384449    3.6427636   -0.4374614 
H    -7.2556297    2.9178360    0.6739927 
H    -5.8641832    1.8167572    2.4381537 
H    -3.3820897    1.9268664    2.3195856 
H    -3.6692521    4.2497171   -1.3297459 
H    -6.1424994    4.1392515   -1.2039483 
C     1.5333378   -0.0993279   -2.7556854 
C     1.9432713   -0.6588583   -3.9718662 
C     3.0789954   -1.4817164   -4.0182121 
C     3.8066419   -1.7476872   -2.8475165 
C     3.4036799   -1.1893050   -1.6286950 
C     2.2644896   -0.3590579   -1.5811182 
C     3.0293073    1.6228669    0.4423427 
C     4.2435437    1.7385585   -0.2595440 
C     5.1873690    2.7060025    0.1195451 
C     4.9293434    3.5668761    1.1948443 
C     3.7143963    3.4659733    1.8935723 
C     2.7680569    2.5061383    1.5146854 
C     1.8102280   -0.8942305    1.2908107 
C     2.4335747   -0.5949797    2.5174682 
C     2.3230264   -1.4767020    3.5998495 
C     1.6144030   -2.6680305    3.4582394 
C     1.0956179   -2.1144110    1.1199210 
C     1.0276704   -3.0050047    2.2249196 
C     0.4274850   -2.4418355   -0.1847579 
C     1.0309179   -3.3128282   -1.1350377 
O     2.2377092   -3.9415467   -1.0115461 
C     2.7913985   -4.4479012    0.2162053 
C     1.9331338   -5.5477559    0.8555709 
C     0.4833110   -5.1932763    1.2009525 
O     0.3477954   -4.1926838    2.2306063 
C     0.4142812   -3.5517650   -2.3799370 
C    -0.8188068   -2.9827795   -2.6821184 
C    -1.4523485   -2.1490543   -1.7512435 
C    -0.8340469   -1.8660345   -0.5192973 
C    -1.5726880   -1.0559368    2.2559037 
C    -1.9851124   -2.3543465    2.6206953 
C    -2.0239145   -2.7214718    3.9711770 
C    -1.6494302   -1.8012790    4.9625929 
C    -1.2286704   -0.5113882    4.6042674 
C    -1.1891535   -0.1382268    3.2543976 
C    -3.3294661   -0.4374693    0.0021805 
C    -3.6502899    0.3205996   -1.1446852 
C    -4.9718714    0.3981420   -1.5984220 
C    -5.9925934   -0.2648943   -0.9009885 
C    -5.6855005   -1.0012851    0.2517425 
C    -4.3622835   -1.0874607    0.7057036 
H     0.6402065    0.5310222   -2.7051004 
H     1.3711502   -0.4575112   -4.8831879 
H     3.3956809   -1.9234092   -4.9688396 
H     4.6819393   -2.4039264   -2.8812934 
H     3.9582595   -1.4137435   -0.7110517 
H     4.4498273    1.0906268   -1.1156880 
H     6.1253886    2.7900404   -0.4388382 
H     5.6675577    4.3214174    1.4851805 
H     3.5021236    4.1400262    2.7298748 
H     1.8144936    2.4399681    2.0535324 
H     3.0065750    0.3272579    2.6338843 
H     2.8027690   -1.2333276    4.5532491 
H     1.5087319   -3.3802387    4.2807264 
H     3.0142941   -3.6287076    0.9177892 
H     3.7527852   -4.8820568   -0.1009689 
H     2.4511894   -5.8885755    1.7714528 
H     1.8947861   -6.4095179    0.1637164 
H    -0.0906877   -4.9074287    0.3034631 
H    -0.0076399   -6.0764779    1.6395050 
H     0.9347454   -4.2107183   -3.0798529 
H    -1.2993670   -3.1937815   -3.6427952 
H    -2.4272623   -1.7172622   -1.9892057 
H    -2.2401981   -3.0865082    1.8481182 
H    -2.3296319   -3.7352569    4.2477611 
H    -1.6765017   -2.0936081    6.0174899 
H    -0.9229653    0.2019230    5.3765132 
H    -0.8449059    0.8615297    2.9642822 
H    -2.8560879    0.8599616   -1.6755354 
H    -5.2077487    0.9937124   -2.4856606 
H    -7.0282572   -0.1955204   -1.2490208 
H    -6.4804770   -1.5089997    0.8077315 
H    -4.1436262   -1.6507974    1.6166446 
