104
Energy =
C    -2.3728546    2.8499052   -1.0332423 
C    -1.1041816    3.4791380   -1.2061152 
C    -0.1660870    2.9667720   -2.1322033 
H    -0.8121963    4.2891249   -0.5262747 
Pd   -0.7225112    1.4277582   -0.5238655 
P     1.3995881    0.3950294   -0.4154602 
P    -1.7538791   -0.3882604    0.5338575 
H    -2.7865035    2.3109709   -1.8986036 
H    -0.5693285    2.3276415   -2.9319078 
C    -5.3232730    4.2278032    1.7803201 
C    -3.9566854    4.3282571    2.0969427 
C    -2.9897643    3.8840596    1.1900123 
C    -3.3684100    3.3227739   -0.0527501 
C    -4.7440606    3.2163362   -0.3514663 
C    -5.7118588    3.6727845    0.5526775 
H    -6.0786978    4.5784287    2.4910285 
H    -3.6474203    4.7506008    3.0587031 
H    -1.9288760    3.9386627    1.4601491 
H    -5.0544689    2.7728043   -1.3036938 
H    -6.7736758    3.5862828    0.3001584 
C     3.7124068    4.5547923   -3.0761974 
C     3.0195966    5.0412885   -1.9548684 
C     1.7678348    4.5212560   -1.6171648 
C     1.1728554    3.5073701   -2.4041615 
C     1.8879562    3.0192694   -3.5229188 
C     3.1446282    3.5368083   -3.8558113 
H     4.6924129    4.9673189   -3.3371577 
H     3.4621514    5.8287926   -1.3370370 
H     1.2487798    4.9106069   -0.7363952 
H     1.4461799    2.2305440   -4.1405215 
H     3.6777516    3.1495628   -4.7301586 
C    -1.5786180   -1.9715220    2.8656736 
C    -1.2543877   -2.1980519    4.2073919 
C    -0.6071607   -1.2009400    4.9561034 
C    -0.2799750    0.0250467    4.3598612 
C    -0.5961235    0.2543700    3.0132129 
C    -1.2394878   -0.7441418    2.2611661 
C    -3.5746648   -0.6094950    0.7132340 
C    -4.2702724    0.4276198    1.3684970 
C    -5.6293947    0.2822781    1.6752183 
C    -6.3078652   -0.8962369    1.3330333 
C    -5.6168213   -1.9385194    0.6974146 
C    -4.2548204   -1.8039924    0.3935216 
C    -1.1729807   -1.7511423   -0.5642253 
C    -1.9161234   -2.0175852   -1.7372872 
C    -1.4999364   -3.0108213   -2.6307836 
C    -0.3332151   -3.7443705   -2.3797559 
C     0.0476738   -2.4304234   -0.3371133 
C     0.4381802   -3.4480067   -1.2468528 
C     0.9924666   -2.1254547    0.7763360 
C     1.2590559   -3.1449226    1.7174576 
O     0.4995342   -4.2771696    1.5905417 
C     1.1372322   -5.5640813    1.7007552 
C     2.1735257   -5.8017848    0.5964154 
C     1.6728170   -5.4967786   -0.8193604 
O     1.6341816   -4.0640804   -1.0090641 
C     2.2005773   -2.9543415    2.7408404 
C     2.8879273   -1.7384016    2.8221643 
C     2.6480789   -0.7161978    1.8939125 
C     1.7036558   -0.9047425    0.8666937 
C     1.8750000   -0.4811829   -1.9572131 
C     3.0266193   -1.2956962   -1.9910431 
C     3.3500908   -2.0012422   -3.1564072 
C     2.5251103   -1.9106678   -4.2883029 
C     1.3673097   -1.1193200   -4.2520079 
C     1.0416835   -0.4088104   -3.0895847 
C     2.6844045    1.6530921   -0.0501769 
C     3.8972327    1.7530032   -0.7549697 
C     4.8524839    2.7049655   -0.3696144 
C     4.6105694    3.5542317    0.7193634 
C     3.3927290    3.4734336    1.4126647 
C     2.4283022    2.5367063    1.0218048 
H    -2.0771997   -2.7533713    2.2834768 
H    -1.5072527   -3.1570143    4.6712688 
H    -0.3599095   -1.3808316    6.0075839 
H     0.2236602    0.8036836    4.9419838 
H    -0.3447410    1.2091530    2.5366953 
H    -3.7464464    1.3429913    1.6593004 
H    -6.1541080    1.0977092    2.1823955 
H    -7.3711601   -1.0072439    1.5697891 
H    -6.1360360   -2.8687543    0.4437659 
H    -3.7255431   -2.6379438   -0.0761380 
H    -2.8293196   -1.4515069   -1.9462298 
H    -2.0865968   -3.2111059   -3.5331495 
H     0.0084731   -4.5160019   -3.0759227 
H     0.3017197   -6.2778575    1.6152787 
H     1.5932202   -5.6974098    2.7005472 
H     2.4916317   -6.8599264    0.6497349 
H     3.0734960   -5.1864213    0.7773529 
H     2.3721508   -5.9081965   -1.5680658 
H     0.6708345   -5.9288272   -1.0004911 
H     2.3841222   -3.7448287    3.4739099 
H     3.6212996   -1.5831032    3.6200837 
H     3.2075852    0.2196220    1.9656433 
H     3.6502678   -1.4007963   -1.0972739 
H     4.2415477   -2.6363543   -3.1751131 
H     2.7774847   -2.4699287   -5.1953374 
H     0.7075138   -1.0673961   -5.1241921 
H     0.1183117    0.1770222   -3.0430417 
H     4.0950712    1.0987737   -1.6086377 
H     5.7903705    2.7827199   -0.9288495 
H     5.3645685    4.2891961    1.0196046 
H     3.1912982    4.1449629    2.2537884 
H     1.4716822    2.4798791    1.5548498 
