203
Energy =
C     3.4309589    1.2024924   -0.9482351 
C     3.8279981    0.2104143   -0.0227689 
C     3.5476557   -1.1700898   -0.2897969 
H     4.1845949    0.5135984    0.9691938 
Pd    1.6547074   -0.0270199   -0.2330036 
P     0.0813464   -1.7332114   -0.4614547 
P     0.0846891    1.6416443    0.1755608 
H     3.2297318    0.8602867   -1.9762331 
H     3.5701591   -1.4968447   -1.3381240 
C     3.6896934    5.4791640   -0.6711952 
C     3.1277755    4.8622513   -1.7989013 
C     3.0617419    3.4680075   -1.8687801 
C     3.5474101    2.6598443   -0.8136559 
C     4.1043608    3.2973611    0.3186030 
C     4.1735117    4.6918991    0.3865131 
H     3.7538439    6.5706103   -0.6178063 
H     2.7435549    5.4675670   -2.6265626 
H     2.6217346    2.9900114   -2.7494246 
H     4.4921094    2.7016519    1.1495650 
H     4.6056630    5.1691634    1.2714962 
C     3.8850352   -4.3665318    2.5795340 
C     3.8591714   -3.0325311    3.0202027 
C     3.7577094   -1.9869011    2.0980373 
C     3.6932949   -2.2470488    0.7077697 
C     3.7282913   -3.5934127    0.2784609 
C     3.8197759   -4.6388818    1.2053267 
H     3.9586060   -5.1849541    3.3030302 
H     3.9132073   -2.8077056    4.0906310 
H     3.7129540   -0.9563402    2.4641739 
H     3.6739117   -3.8178290   -0.7922808 
H     3.8433377   -5.6738675    0.8501314 
C     0.7398367    3.5907313   -5.6544093 
C    -0.0485574    2.3702049   -5.1133205 
C    -1.2198381    2.0410481   -6.0729120 
C     0.8914703    1.1463767   -5.0682121 
C    -0.5988732    2.7176374   -3.7170491 
C    -0.1143247    2.1081186   -2.5490044 
C    -1.6054160    3.6925370   -3.5694100 
C    -2.1685888    4.0410692   -2.3247782 
C    -3.2615975    5.1251533   -2.2511529 
C    -3.8612527    5.2390534   -0.8334732 
C    -4.4064287    4.7923111   -3.2405623 
C    -2.6293985    6.4879139   -2.6374638 
C    -1.6776917    3.3907185   -1.1791157 
C    -0.6342968    2.4546692   -1.2907215 
C     0.8384668    2.9251549    1.2496964 
C     1.6602695    2.4652095    2.2992989 
C     2.2071905    3.3641372    3.2309435 
C     3.0835850    2.8940995    4.4091941 
C     2.2075223    2.8850750    5.6890964 
C     4.2861314    3.8495674    4.6083952 
C     3.6424022    1.4736603    4.1780335 
C     1.8950219    4.7297481    3.0768140 
C     1.1138636    5.2250105    2.0154241 
C     0.5961411    4.2976284    1.0915674 
C     0.7836390    6.7280040    1.9251195 
C     2.0425812    7.5882182    2.1952330 
C     0.2243115    7.1076506    0.5364129 
C    -0.2896301    7.0430523    3.0008202 
C    -1.3503174    1.0284424    1.1604270 
C    -1.4946739    1.3628817    2.5219757 
C    -2.5617007    0.8374315    3.2595660 
C    -3.4959889   -0.0151055    2.6606996 
C    -2.2801250    0.1628537    0.5380633 
C    -3.3634546   -0.3426930    1.3012388 
C    -2.2459726   -0.1953959   -0.9137241 
C    -3.2654909    0.3561967   -1.7315808 
O    -4.0936289    1.2501514   -1.1135133 
C    -5.4607866    1.3732702   -1.5419355 
C    -6.3117761    0.1925182   -1.0719441 
C    -6.3539694    0.0249339    0.4690963 
C    -5.6098874   -1.2076521    0.9855071 
O    -4.2137663   -1.1831998    0.6375182 
C    -3.3589697    0.0160991   -3.0910651 
C    -2.4448661   -0.8915790   -3.6371869 
C    -1.4326593   -1.4518324   -2.8494466 
C    -1.3240136   -1.1045610   -1.4875509 
C     0.7987691   -3.1288029   -1.4140488 
C     1.5675094   -2.8048177   -2.5511641 
C     2.2118519   -3.8053181   -3.2950734 
C     3.1070309   -3.4861734   -4.5077810 
C     2.6014769   -4.2646186   -5.7485933 
C     4.5594984   -3.9164636   -4.1744974 
C     3.1079974   -1.9807068   -4.8463364 
C     2.0526101   -5.1409360   -2.8662298 
C     1.3015976   -5.4976733   -1.7313216 
C     0.6801588   -4.4643233   -1.0012889 
C     1.1410643   -6.9797452   -1.3380848 
C     2.5111606   -7.7017642   -1.3616195 
C     0.1921821   -7.6485109   -2.3676214 
C     0.5346602   -7.1351822    0.0734103 
C    -0.6721640   -2.4415903    1.0393263 
C    -1.7705716   -3.3150242    0.9335404 
C    -2.3191081   -3.9008375    2.0860465 
C    -3.4859501   -4.9055129    2.0277501 
C    -4.6319192   -4.4304313    2.9557666 
C    -2.9777344   -6.2891455    2.5092490 
C    -4.0433252   -5.0511732    0.5962049 
C    -1.7531063   -3.5515573    3.3290644 
C    -0.6804433   -2.6497914    3.4671018 
C    -0.1309580   -2.1083266    2.2915014 
C    -0.1298478   -2.3136730    4.8660434 
C    -1.2908306   -1.9401462    5.8209224 
C     0.8522742   -1.1248079    4.8161842 
C     0.6149353   -3.5595542    5.4119714 
H     1.1457203    3.3747169   -6.6589461 
H     1.5843466    3.8399982   -4.9874130 
H     0.0946428    4.4831075   -5.7319371 
H    -0.8305430    1.7728120   -7.0710461 
H    -1.9004972    2.8996899   -6.2018062 
H    -1.8097643    1.1915192   -5.6882696 
H     1.7955802    1.3380880   -4.4629297 
H     1.2299581    0.8961804   -6.0882784 
H     0.3778241    0.2628088   -4.6503933 
H     0.6596023    1.3370541   -2.5940267 
H    -1.9770398    4.1967211   -4.4674665 
H    -4.6677370    5.9923105   -0.8286863 
H    -3.1068984    5.5585845   -0.0929552 
H    -4.2867365    4.2771904   -0.4975434 
H    -5.1971191    5.5607953   -3.1794235 
H    -4.0535818    4.7615161   -4.2854872 
H    -4.8562040    3.8134532   -3.0044943 
H    -1.8070739    6.7481156   -1.9485426 
H    -2.2194397    6.4652583   -3.6622402 
H    -3.3875076    7.2902610   -2.5917227 
H    -2.1077842    3.5919840   -0.1955812 
H     1.8591885    1.3907261    2.3786452 
H     1.3577243    2.1890193    5.5744097 
H     2.8017970    2.5656222    6.5641426 
H     1.8006761    3.8900102    5.8972093 
H     4.9308294    3.4787830    5.4241865 
H     4.8970812    3.9128405    3.6901600 
H     3.9693514    4.8705268    4.8794831 
H     2.8422668    0.7199025    4.1062965 
H     4.2503771    1.4273676    3.2564577 
H     4.2916217    1.1839035    5.0217106 
H     2.2876640    5.4400224    3.8097765 
H    -0.0027899    4.6396601    0.2464382 
H     2.8430263    7.3565418    1.4727850 
H     1.7928197    8.6595635    2.1023429 
H     2.4434520    7.4326237    3.2112028 
H     0.9242704    6.8298334   -0.2710552 
H     0.0558911    8.1971067    0.4869930 
H    -0.7441073    6.6174731    0.3358993 
H     0.0815269    6.8079236    4.0138103 
H    -0.5602253    8.1139774    2.9736751 
H    -1.2040488    6.4487550    2.8267532 
H    -0.7847449    2.0419122    3.0009237 
H    -2.6715079    1.1013217    4.3165015 
H    -4.3194239   -0.4243216    3.2513226 
H    -5.5235582    1.4998040   -2.6382135 
H    -5.8032838    2.3134684   -1.0799504 
H    -5.9312399   -0.7298986   -1.5495289 
H    -7.3318460    0.3489622   -1.4672600 
H    -5.9371086    0.9215086    0.9651918 
H    -7.4001929   -0.0625335    0.8142860 
H    -5.9890137   -2.1264399    0.5092419 
H    -5.7445770   -1.3200215    2.0767389 
H    -4.1358546    0.4555182   -3.7215822 
H    -2.5251919   -1.1696899   -4.6932184 
H    -0.7403649   -2.1725669   -3.2914801 
H     1.6690425   -1.7530014   -2.8361971 
H     2.6217927   -5.3556047   -5.5847852 
H     3.2403248   -4.0455011   -6.6224524 
H     1.5647636   -3.9764262   -5.9964621 
H     4.9356066   -3.3726562   -3.2892852 
H     4.6244938   -4.9972508   -3.9610964 
H     5.2299338   -3.6976806   -5.0246343 
H     3.7550117   -1.7962822   -5.7208883 
H     3.5004205   -1.3701954   -4.0125820 
H     2.0959935   -1.6175982   -5.0949616 
H     2.5458203   -5.9333677   -3.4377668 
H     0.1119527   -4.6940034   -0.0988669 
H     2.9669768   -7.6982700   -2.3661812 
H     3.2222705   -7.2275040   -0.6634227 
H     2.3865954   -8.7566487   -1.0605627 
H     0.0498846   -8.7164702   -2.1229572 
H     0.6024762   -7.5825931   -3.3905393 
H    -0.7967507   -7.1570774   -2.3650911 
H    -0.4886791   -6.7250927    0.1272924 
H     1.1493083   -6.6279257    0.8381711 
H     0.4747964   -8.2050699    0.3371196 
H    -2.1924447   -3.5194766   -0.0531600 
H    -4.9892872   -3.4323878    2.6533525 
H    -4.3111935   -4.3718461    4.0098689 
H    -5.4814833   -5.1343305    2.9043842 
H    -2.1593004   -6.6530923    1.8642669 
H    -2.5978505   -6.2421252    3.5446204 
H    -3.7966708   -7.0300863    2.4806903 
H    -3.2866106   -5.4593767   -0.0972340 
H    -4.3871704   -4.0804848    0.1983787 
H    -4.9003418   -5.7465958    0.5976008 
H    -2.1729551   -4.0008187    4.2347818 
H     0.7131606   -1.4144182    2.3279998 
H    -0.8916055   -1.6706699    6.8147817 
H    -1.9957842   -2.7766029    5.9644495 
H    -1.8574437   -1.0787138    5.4275944 
H     1.7433797   -1.3633627    4.2127089 
H     1.1970512   -0.8770061    5.8351280 
H     0.3729823   -0.2261476    4.3887586 
H     1.0335071   -3.3517223    6.4134061 
H    -0.0657921   -4.4244128    5.4993605 
H     1.4417404   -3.8441825    4.7382681 
