104
Energy =
C    -2.3860788    2.7653388   -0.5345642 
C    -1.2176197    3.5312469   -0.8186160 
C    -0.4099597    3.2581040   -1.9456473 
H    -0.8448348    4.2369485   -0.0651109 
Pd   -0.6066617    1.4118825   -0.6121082 
P     1.4972654    0.3924203   -0.7315953 
P    -1.6410548   -0.4900697    0.2841207 
H    -2.9417146    2.3545771   -1.3889749 
H    -0.8532241    2.6556853   -2.7550288 
C    -4.7111937    3.1193366    3.0732533 
C    -5.2894869    2.6312972    1.8931239 
C    -4.5241190    2.5228203    0.7255215 
C    -3.1637860    2.9020543    0.7125713 
C    -2.5946354    3.3955316    1.9108621 
C    -3.3591015    3.5029659    3.0758488 
H    -5.3077049    3.2017062    3.9875991 
H    -6.3419840    2.3298245    1.8789512 
H    -4.9815316    2.1362078   -0.1914312 
H    -1.5372935    3.6827107    1.9365643 
H    -2.8991052    3.8825124    3.9942812 
C     3.1333908    5.4046892   -3.0828509 
C     2.2376226    5.9779956   -2.1672928 
C     1.0849896    5.2851029   -1.7818853 
C     0.8011419    4.0069326   -2.3155109 
C     1.7042179    3.4500998   -3.2503693 
C     2.8622132    4.1375177   -3.6233866 
H     4.0371416    5.9464382   -3.3799091 
H     2.4348060    6.9738030   -1.7569535 
H     0.3839766    5.7561849   -1.0851964 
H     1.5021247    2.4559923   -3.6651096 
H     3.5591559    3.6832337   -4.3345604 
C    -1.0213076    0.3635937    2.8781811 
C    -0.8852088    0.2089773    4.2634590 
C    -1.2315067   -1.0077268    4.8705261 
C    -1.7112008   -2.0731585    4.0923651 
C    -1.8487353   -1.9255923    2.7070366 
C    -1.5078106   -0.7007656    2.0962188 
C    -3.4315748   -0.5313964   -0.1300294 
C    -4.4300421   -0.7853496    0.8278721 
C    -5.7817066   -0.7885664    0.4495547 
C    -6.1472975   -0.5384713   -0.8800996 
C    -5.1557201   -0.2728687   -1.8397524 
C    -3.8065215   -0.2605428   -1.4651985 
C    -0.9802776   -2.0748058   -0.4007617 
C    -1.7310216   -2.8396331   -1.3159626 
C    -1.2151964   -4.0375359   -1.8255154 
C     0.0427151   -4.4976082   -1.4225776 
C     0.3025539   -2.5164314    0.0067033 
C     0.7886972   -3.7454926   -0.5029936 
C     1.1529844   -1.8195319    1.0199752 
C     1.3822843   -2.5062326    2.2388897 
O     0.7388644   -3.7010063    2.4051386 
C     1.5063680   -4.8852637    2.7160019 
C     1.4243248   -5.8676131    1.5428421 
C     2.2680741   -5.4738940    0.3256377 
O     2.0413871   -4.1116808   -0.0857037 
C     2.1808797   -1.9501892    3.2495788 
C     2.7898625   -0.7084367    3.0405177 
C     2.6050975   -0.0239835    1.8330825 
C     1.7914697   -0.5697758    0.8192228 
C     1.7657283   -0.7894225   -2.1038497 
C     2.7852835   -1.7619989   -2.0433768 
C     2.9750325   -2.6414928   -3.1161784 
C     2.1510087   -2.5602487   -4.2496406 
C     1.1304351   -1.5992327   -4.3106538 
C     0.9366216   -0.7156130   -3.2401842 
C     2.9040949    1.5715375   -0.8030832 
C     4.0854915    1.3095034   -1.5236593 
C     5.1347502    2.2389114   -1.5116082 
C     5.0144194    3.4329591   -0.7863836 
C     3.8348450    3.7054822   -0.0771220 
C     2.7809651    2.7846667   -0.0929555 
H    -0.7355283    1.3017353    2.3920118 
H    -0.5007300    1.0365760    4.8682550 
H    -1.1197313   -1.1292896    5.9531512 
H    -1.9647046   -3.0283553    4.5631224 
H    -2.1871428   -2.7690199    2.0965939 
H    -4.1588477   -0.9642706    1.8721319 
H    -6.5513778   -0.9804314    1.2042316 
H    -7.2030233   -0.5423938   -1.1700559 
H    -5.4348601   -0.0697787   -2.8788198 
H    -3.0346613   -0.0408427   -2.2135910 
H    -2.7293402   -2.5152848   -1.6182379 
H    -1.8050089   -4.6214786   -2.5394706 
H     0.4470466   -5.4313707   -1.8230362 
H     2.5535328   -4.6105762    2.9425966 
H     1.0588072   -5.3330869    3.6200613 
H     0.3622218   -5.9677922    1.2542979 
H     1.7606892   -6.8654613    1.8818945 
H     3.3431514   -5.4982096    0.5675823 
H     2.0953007   -6.1753930   -0.5130738 
H     2.3082016   -2.4890408    4.1931865 
H     3.4161370   -0.2685409    3.8233733 
H     3.1082996    0.9334540    1.6756718 
H     3.4015542   -1.8566857   -1.1435537 
H     3.7596958   -3.4027658   -3.0587726 
H     2.2985271   -3.2537722   -5.0841409 
H     0.4793158   -1.5431409   -5.1890513 
H     0.1282647    0.0246651   -3.2723587 
H     4.1877603    0.3863816   -2.1014544 
H     6.0494045    2.0281797   -2.0754637 
H     5.8347062    4.1580433   -0.7828983 
H     3.7272208    4.6455151    0.4725847 
H     1.8490520    3.0072702    0.4411226 
