104
Energy =
C    -2.3951097    2.7836993   -0.6560787 
C    -1.1978478    3.4515185   -1.0709978 
C    -0.4741743    2.9890195   -2.1931249 
H    -0.7476665    4.2131823   -0.4225585 
Pd   -0.7025329    1.3566073   -0.6117475 
P     1.4509128    0.4682926   -0.5358113 
P    -1.7253986   -0.5185957    0.3298899 
H    -3.0230748    2.3375150   -1.4391687 
H    -1.0190300    2.3412548   -2.8985839 
C    -4.4122395    3.4069668    3.0986718 
C    -5.0596838    2.7636788    2.0337908 
C    -4.4024802    2.5879806    0.8103129 
C    -3.0772335    3.0437119    0.6263681 
C    -2.4380627    3.6961468    1.7090142 
C    -3.0994708    3.8782072    2.9274215 
H    -4.9261973    3.5452029    4.0553547 
H    -6.0839656    2.3957247    2.1538459 
H    -4.9154635    2.0839011   -0.0154705 
H    -1.4065637    4.0508197    1.6046607 
H    -2.5880478    4.3866530    3.7517286 
C     3.2138781    4.4667059   -3.8226707 
C     2.6578170    5.0923569   -2.6949276 
C     1.4631015    4.6225385   -2.1422368 
C     0.7926438    3.5169656   -2.7140960 
C     1.3653486    2.8971183   -3.8502953 
C     2.5646398    3.3635425   -4.3973644 
H     4.1491728    4.8403071   -4.2519769 
H     3.1605489    5.9529202   -2.2427621 
H     1.0436724    5.1287307   -1.2679859 
H     0.8593610    2.0385859   -4.3047851 
H     2.9903297    2.8700644   -5.2770283 
C    -1.7919337   -2.0209401    2.7221496 
C    -1.7296729   -2.1588619    4.1140136 
C    -1.5154876   -1.0331954    4.9255892 
C    -1.3617448    0.2353984    4.3457700 
C    -1.4155124    0.3804998    2.9533413 
C    -1.6303678   -0.7475766    2.1390321 
C    -3.5153917   -0.5779656   -0.0854971 
C    -4.5009336   -0.8394835    0.8847937 
C    -5.8592427   -0.8089248    0.5327030 
C    -6.2445910   -0.5217345   -0.7841164 
C    -5.2660117   -0.2572280   -1.7573473 
C    -3.9103088   -0.2750005   -1.4078826 
C    -0.9897449   -2.0414321   -0.4148855 
C    -1.6842808   -2.7576705   -1.4108867 
C    -1.0945189   -3.8692099   -2.0256630 
C     0.1830178   -4.2953035   -1.6481719 
C     0.3106607   -2.4521903   -0.0266920 
C     0.8712634   -3.5988817   -0.6431155 
C     1.1162160   -1.8247451    1.0667356 
C     1.3530817   -2.6126949    2.2192504 
O     0.7405752   -3.8353295    2.2722235 
C     1.5426601   -5.0204369    2.4771942 
C     1.5370653   -5.8765942    1.2059957 
C     2.4030456   -5.3314840    0.0651121 
O     2.1270424   -3.9473903   -0.2237034 
C     2.1324513   -2.1310303    3.2821510 
C     2.7174991   -0.8644646    3.1877804 
C     2.5280210   -0.0797543    2.0429425 
C     1.7295669   -0.5498991    0.9812807 
C     1.9861534   -0.6189443   -1.9058400 
C     3.1675585   -1.3825136   -1.8098620 
C     3.5225278   -2.2495990   -2.8507279 
C     2.7009463   -2.3662168   -3.9826571 
C     1.5186444   -1.6155010   -4.0765884 
C     1.1609499   -0.7436692   -3.0406589 
C     2.6607580    1.8405389   -0.3906535 
C     3.8306910    1.9274527   -1.1661105 
C     4.7229572    2.9916274   -0.9679476 
C     4.4616781    3.9664551    0.0049269 
C     3.2829942    3.8990012    0.7641564 
C     2.3778792    2.8513988    0.5563908 
H    -1.9305968   -2.9032398    2.0893287 
H    -1.8379551   -3.1507195    4.5644607 
H    -1.4655706   -1.1461799    6.0137816 
H    -1.1966030    1.1142959    4.9773612 
H    -1.2967362    1.3671845    2.4935012 
H    -4.2117024   -1.0528191    1.9179799 
H    -6.6185214   -1.0067497    1.2963932 
H    -7.3054541   -0.4978325   -1.0535837 
H    -5.5608182   -0.0281385   -2.7866328 
H    -3.1493885   -0.0473083   -2.1647522 
H    -2.6963039   -2.4616949   -1.6972054 
H    -1.6423408   -4.4132446   -2.8019207 
H     0.6446678   -5.1622102   -2.1288030 
H     1.0836182   -5.5776098    3.3118290 
H     2.5709952   -4.7368150    2.7693429 
H     0.4896892   -5.9857894    0.8704551 
H     1.9014993   -6.8912063    1.4542660 
H     3.4693371   -5.3327305    0.3443674 
H     2.2915170   -5.9558263   -0.8421656 
H     2.2666141   -2.7485922    4.1753641 
H     3.3307795   -0.4835136    4.0108186 
H     3.0182628    0.8940153    1.9737697 
H     3.7887409   -1.3213951   -0.9102500 
H     4.4358644   -2.8477941   -2.7702438 
H     2.9778528   -3.0519678   -4.7903485 
H     0.8688554   -1.7193253   -4.9516270 
H     0.2242812   -0.1768720   -3.0891700 
H     4.0452220    1.1707346   -1.9265574 
H     5.6284441    3.0558403   -1.5799226 
H     5.1683300    4.7879834    0.1615826 
H     3.0645997    4.6678249    1.5127308 
H     1.4494755    2.8038656    1.1399369 
