203
Energy =
C     3.3657280    1.3262340   -0.9844125 
C     3.8357761    0.3082763   -0.1233882 
C     3.6008194   -1.0666003   -0.4463846 
H     4.2327862    0.5763015    0.8635369 
Pd    1.6634691    0.0013331   -0.2506777 
P     0.1269667   -1.7389269   -0.4009759 
P     0.0487064    1.6307686    0.1655204 
H     3.1429220    1.0239021   -2.0199001 
H     3.5685519   -1.3292265   -1.5120020 
C     3.5637004    5.5917141   -0.5376965 
C     4.0644592    4.7693174    0.4850954 
C     4.0105666    3.3780696    0.3623332 
C     3.4525148    2.7788767   -0.7901695 
C     2.9448766    3.6215799   -1.8070468 
C     2.9970451    5.0129328   -1.6829294 
H     3.6176682    6.6809197   -0.4429776 
H     4.4976197    5.2163214    1.3852669 
H     4.4101037    2.7540460    1.1666753 
H     2.5006449    3.1734810   -2.7012470 
H     2.5988948    5.6459069   -2.4828138 
C     4.5588473   -4.3813427    2.1331374 
C     4.4115401   -4.5655743    0.7507405 
C     4.0900414   -3.4832443   -0.0764103 
C     3.9140307   -2.1876358    0.4598129 
C     4.0511169   -2.0193382    1.8582401 
C     4.3762109   -3.1012895    2.6821468 
H     4.8150767   -5.2268633    2.7798678 
H     4.5554887   -5.5564239    0.3090512 
H     3.9724303   -3.6387028   -1.1534151 
H     3.8924311   -1.0336953    2.3086984 
H     4.4842564   -2.9477033    3.7607364 
C    -2.5175979    6.4174256   -2.8414817 
C    -3.1912310    5.0704277   -2.4693069 
C    -3.8543280    5.2125689   -1.0824755 
C    -4.2954133    4.7434806   -3.5054036 
C    -2.1107421    3.9713664   -2.4772821 
C    -1.6560233    3.3625667   -1.2939514 
C    -1.5189858    3.5706302   -3.6929542 
C    -0.5169022    2.5828108   -3.7752990 
C     0.0650160    2.1665721   -5.1398874 
C     1.0239426    0.9626298   -5.0082527 
C     0.8448471    3.3655947   -5.7378490 
C    -1.0852241    1.7648194   -6.0973319 
C    -0.0688980    2.0188021   -2.5714618 
C    -0.6168018    2.4175782   -1.3406332 
C     0.7717537    2.9089886    1.2633903 
C     0.5007953    4.2788982    1.1420850 
C     0.9857658    5.1891672    2.1012146 
C     0.6214343    6.6862595    2.0516139 
C     0.0763184    7.0969491    0.6656249 
C     1.8548136    7.5666548    2.3703672 
C    -0.4765757    6.9417174    3.1181592 
C     1.7633305    4.6784219    3.1579019 
C     2.1005981    3.3145672    3.2771990 
C     1.5847114    2.4337939    2.3128986 
C     2.9910202    2.8373015    4.4413949 
C     2.1926901    2.9748709    5.7635596 
C     3.4230218    1.3650189    4.2730158 
C     4.2727309    3.7056196    4.5139643 
C    -1.4316548    1.0572414    1.1046706 
C    -1.6617370    1.4826400    2.4283221 
C    -2.7848426    1.0202522    3.1233600 
C    -3.6848175    0.1336320    2.5222589 
C    -2.3294602    0.1627814    0.4778402 
C    -3.4625563   -0.2895112    1.2016727 
C    -2.2314408   -0.2573169   -0.9538363 
C    -3.2287818    0.2572458   -1.8245861 
O    -4.0681226    1.1807744   -1.2696546 
C    -5.4123833    1.3160226   -1.7597437 
C    -6.3050717    0.1609774   -1.3025981 
C    -6.4159092    0.0254624    0.2380693 
C    -5.6875738   -1.1881139    0.8188730 
O    -4.2761235   -1.1672007    0.5393649 
C    -3.2943082   -0.1485713   -3.1668701 
C    -2.3704762   -1.0837204   -3.6450666 
C    -1.3729864   -1.5974267   -2.8094781 
C    -1.2881532   -1.1829274   -1.4636044 
C     0.8304133   -3.1842932   -1.2855985 
C     1.5442066   -2.9290205   -2.4685146 
C     2.1076288   -3.9773232   -3.2200987 
C     2.8373566   -3.6559852   -4.5394977 
C     3.8920638   -2.5447571   -4.3036815 
C     1.7872716   -3.1560505   -5.5664354 
C     3.5551139   -4.8910334   -5.1223146 
C     1.9424466   -5.2865578   -2.7314449 
C     1.2404517   -5.5761110   -1.5405183 
C     0.6918236   -4.5026579   -0.8177620 
C     1.0653458   -7.0400911   -1.0891738 
C     0.2605903   -7.1474352    0.2236695 
C     2.4538634   -7.6905719   -0.8668115 
C     0.3019570   -7.8144207   -2.1955328 
C    -0.6061321   -2.3638264    1.1468738 
C    -1.7265940   -3.2183435    1.1031469 
C    -2.2550351   -3.7466342    2.2885780 
C    -3.4535292   -4.7142060    2.2992998 
C    -4.5756169   -4.1327192    3.1958949 
C    -2.9923823   -6.0806543    2.8692551 
C    -4.0228430   -4.9358352    0.8823530 
C    -1.6446586   -3.3729136    3.5081776 
C    -0.5431462   -2.5045524    3.5834186 
C    -0.0225374   -2.0077200    2.3699635 
C     0.0895591   -2.0749993    4.9223663 
C     1.6091789   -2.3690181    4.8902420 
C    -0.5257172   -2.8174194    6.1264958 
C    -0.1376611   -0.5538874    5.1139971 
H    -3.2624918    7.2334042   -2.8431333 
H    -2.0582327    6.3726668   -3.8444559 
H    -1.7253883    6.6721679   -2.1157410 
H    -4.6540938    5.9715732   -1.1274867 
H    -3.1328944    5.5398996   -0.3133182 
H    -4.3020203    4.2594587   -0.7502349 
H    -3.8983660    4.6971161   -4.5337435 
H    -5.0761799    5.5241431   -3.4869501 
H    -4.7704413    3.7737709   -3.2798845 
H    -2.1141310    3.6024828   -0.3320563 
H    -1.8635689    4.0414383   -4.6195313 
H     1.3869333    0.6614707   -6.0058250 
H     0.5164747    0.0942303   -4.5526021 
H     1.9114102    1.2059750   -4.3963453 
H     1.2702890    3.0978833   -6.7215576 
H     0.1889506    4.2422707   -5.8776833 
H     1.6750280    3.6658639   -5.0738537 
H    -1.6651097    0.9260797   -5.6760069 
H    -1.7791091    2.6031200   -6.2796167 
H    -0.6764597    1.4518516   -7.0744759 
H     0.6991671    1.2405041   -2.5651069 
H    -0.0946629    4.6327162    0.2992696 
H    -0.8785676    6.5941429    0.4328852 
H    -0.1139766    8.1837366    0.6472484 
H     0.7953507    6.8590622   -0.1377605 
H     1.5816585    8.6342794    2.3049494 
H     2.2409049    7.3896911    3.3885885 
H     2.6732876    7.3751770    1.6564226 
H    -1.3731561    6.3312609    2.9104708 
H    -0.1159262    6.6839815    4.1294366 
H    -0.7730114    8.0061327    3.1194718 
H     2.1341412    5.3745277    3.9163419 
H     1.8033364    1.3615277    2.3615835 
H     1.2785229    2.3564958    5.7333579 
H     2.8065498    2.6461027    6.6212744 
H     1.8906220    4.0214472    5.9418518 
H     2.5630437    0.6750748    4.2750100 
H     4.0829253    1.0711010    5.1070275 
H     3.9864797    1.2174131    3.3339202 
H     4.0431549    4.7696543    4.6920275 
H     4.9182924    3.3616251    5.3410611 
H     4.8513754    3.6341207    3.5757988 
H    -0.9737542    2.1812046    2.9105678 
H    -2.9639153    1.3573924    4.1495119 
H    -4.5536802   -0.2244045    3.0802206 
H    -5.4249964    1.4212706   -2.8601255 
H    -5.7581295    2.2712888   -1.3323687 
H    -5.9259852   -0.7790979   -1.7457110 
H    -7.3045910    0.3305060   -1.7425833 
H    -6.0343217    0.9384897    0.7326868 
H    -7.4763587   -0.0673585    0.5351781 
H    -6.0384744   -2.1209750    0.3481656 
H    -5.8745809   -1.2759516    1.9048036 
H    -4.0574171    0.2579694   -3.8350272 
H    -2.4288468   -1.4194052   -4.6856989 
H    -0.6739219   -2.3378193   -3.2040956 
H     1.6550921   -1.8928183   -2.8090109 
H     3.4277253   -1.5983991   -3.9734414 
H     4.4359408   -2.3318815   -5.2406830 
H     4.6299946   -2.8519523   -3.5417126 
H     1.0237684   -3.9311362   -5.7538304 
H     1.2720337   -2.2488991   -5.2045002 
H     2.2742538   -2.9095885   -6.5270098 
H     4.0859810   -4.6105400   -6.0482444 
H     2.8441180   -5.6949770   -5.3802563 
H     4.3001703   -5.2980634   -4.4159134 
H     2.3707169   -6.1183293   -3.2959751 
H     0.1532033   -4.6819729    0.1139104 
H     0.7592514   -6.6191896    1.0553820 
H    -0.7576637   -6.7344892    0.1119561 
H     0.1603973   -8.2080854    0.5114732 
H     2.3364704   -8.7523611   -0.5864407 
H     2.9965484   -7.1786203   -0.0542062 
H     3.0775659   -7.6498086   -1.7765692 
H     0.8572191   -7.8181564   -3.1493602 
H    -0.6880986   -7.3611531   -2.3789796 
H     0.1510143   -8.8650787   -1.8898635 
H    -2.1775421   -3.4505036    0.1357120 
H    -4.8918489   -3.1431763    2.8258978 
H    -4.2461418   -4.0149741    4.2423742 
H    -5.4535108   -4.8030622    3.1944696 
H    -2.1870526   -6.5120254    2.2496309 
H    -2.6121882   -5.9827976    3.9008890 
H    -3.8365672   -6.7930656    2.8856371 
H    -3.2807540   -5.4087234    0.2146801 
H    -4.3419685   -3.9839278    0.4239732 
H    -4.8984828   -5.6058038    0.9325409 
H    -2.0573805   -3.7788833    4.4348496 
H     0.8389160   -1.3303753    2.3643771 
H     2.0770352   -2.0685410    5.8449043 
H     2.1124087   -1.8174806    4.0801178 
H     1.8009744   -3.4440556    4.7304804 
H    -1.6042052   -2.6054047    6.2329672 
H    -0.0306945   -2.4883805    7.0565228 
H    -0.3914282   -3.9103098    6.0429872 
H     0.3562286   -0.2048718    6.0386937 
H     0.2655451    0.0273629    4.2671036 
H    -1.2145584   -0.3273708    5.1857428 
