203
Energy =
C     3.4294981    1.2004511   -0.9529236 
C     3.8346626    0.2059350   -0.0337249 
C     3.5472254   -1.1730553   -0.3013092 
H     4.2045069    0.5057638    0.9544683 
Pd    1.6587703   -0.0277967   -0.2179741 
P     0.0839365   -1.7334115   -0.4359185 
P     0.0931121    1.6416007    0.1980459 
H     3.2174957    0.8593943   -1.9789951 
H     3.5563213   -1.4968034   -1.3505025 
C     3.6998740    5.4765387   -0.6793872 
C     3.1291260    4.8603192   -1.8030210 
C     3.0589455    3.4662139   -1.8713836 
C     3.5498687    2.6574402   -0.8191233 
C     4.1155122    3.2943266    0.3091616 
C     4.1883365    4.6887555    0.3757800 
H     3.7671661    6.5678474   -0.6271354 
H     2.7413068    5.4660923   -2.6286613 
H     2.6114459    2.9886840   -2.7484819 
H     4.5070126    2.6981280    1.1380166 
H     4.6268271    5.1656831    1.2578078 
C     3.9196798   -4.3751886    2.5565651 
C     3.8875188   -3.0427433    3.0016420 
C     3.7742835   -1.9950856    2.0832324 
C     3.7033405   -2.2517596    0.6924995 
C     3.7429991   -3.5964687    0.2587247 
C     3.8474044   -4.6440166    1.1820281 
H     4.0030568   -5.1953424    3.2770352 
H     3.9460414   -2.8209912    4.0724837 
H     3.7247291   -0.9656588    2.4525133 
H     3.6822933   -3.8172058   -0.8126206 
H     3.8754735   -5.6779675    0.8242289 
C    -1.1886185    1.9130057   -6.0509926 
C    -0.0223544    2.2708975   -5.0956992 
C     0.9227005    1.0518882   -5.0160490 
C     0.7632104    3.4805864   -5.6642450 
C    -0.5798800    2.6499148   -3.7104018 
C    -0.1012157    2.0642386   -2.5284005 
C    -1.5869473    3.6276508   -3.5860274 
C    -2.1537860    4.0012579   -2.3499722 
C    -3.2467432    5.0868118   -2.3013580 
C    -4.3910739    4.7305536   -3.2831311 
C    -2.6139773    6.4405626   -2.7172845 
C    -3.8473529    5.2332617   -0.8870626 
C    -1.6675661    3.3741111   -1.1892755 
C    -0.6252289    2.4349500   -1.2787441 
C     0.8510975    2.9337133    1.2572309 
C     1.6810746    2.4811312    2.3034604 
C     2.2313697    3.3858699    3.2271590 
C     3.1162456    2.9231604    4.4019291 
C     4.3234037    3.8766015    4.5821341 
C     3.6683601    1.4987012    4.1787810 
C     2.2512104    2.9281551    5.6893246 
C     1.9154712    4.7500956    3.0675043 
C     1.1266696    5.2380706    2.0082238 
C     0.6041259    4.3045159    1.0932789 
C     0.7933222    6.7399244    1.9103050 
C     2.0507907    7.6040045    2.1748588 
C     0.2325312    7.1112407    0.5196857 
C    -0.2796343    7.0585739    2.9852224 
C    -1.3342145    1.0329883    1.1958373 
C    -1.4652719    1.3709527    2.5579943 
C    -2.5215343    0.8429247    3.3089989 
C    -3.4581611   -0.0161135    2.7232267 
C    -2.2670388    0.1616844    0.5863881 
C    -3.3392546   -0.3468709    1.3633126 
C    -2.2505723   -0.2005676   -0.8646965 
C    -3.2825502    0.3466446   -1.6697960 
O    -4.1007623    1.2445967   -1.0440814 
C    -5.4745621    1.3645811   -1.4522584 
C    -6.3164886    0.1819120   -0.9705547 
C    -6.3377364    0.0124774    0.5707877 
C    -5.5856134   -1.2201502    1.0756862 
O    -4.1937814   -1.1921573    0.7112477 
C    -3.3990548   -0.0028702   -3.0250408 
C    -2.4959784   -0.9168477   -3.5787011 
C    -1.4706769   -1.4712528   -2.8040275 
C    -1.3373583   -1.1130967   -1.4469563 
C     0.7943042   -3.1204290   -1.4046477 
C     1.5116676   -2.7885040   -2.5672023 
C     2.1290049   -3.7809584   -3.3505587 
C     2.8769174   -3.3765186   -4.6362141 
C     3.8777046   -2.2344944   -4.3235184 
C     1.8340014   -2.8797067   -5.6713390 
C     3.6623118   -4.5553069   -5.2479861 
C     2.0088084   -5.1158179   -2.9195875 
C     1.3115274   -5.4813086   -1.7479319 
C     0.7077635   -4.4610599   -0.9908909 
C     1.1899722   -6.9665671   -1.3529738 
C     0.6317689   -7.1363072    0.0765845 
C     2.5720092   -7.6628221   -1.4231586 
C     0.2205452   -7.6517443   -2.3523123 
C    -0.6504420   -2.4488467    1.0705649 
C    -1.7430400   -3.3302159    0.9727963 
C    -2.2807008   -3.9175507    2.1296104 
C    -3.4411443   -4.9300048    2.0793221 
C    -4.5815817   -4.4664592    3.0199218 
C    -2.9177175   -6.3115467    2.5504223 
C    -4.0118613   -5.0744799    0.6528539 
C    -1.7088386   -3.5629685    3.3685069 
C    -0.6408682   -2.6542887    3.4984431 
C    -0.1033112   -2.1100256    2.3186857 
C    -0.0827236   -2.3135027    4.8932872 
C    -1.2392339   -1.9413464    5.8541601 
C     0.8958393   -1.1219695    4.8352921 
C     0.6688033   -3.5560714    5.4375429 
H    -0.7949366    1.6238389   -7.0415286 
H    -1.8732830    2.7649852   -6.2012583 
H    -1.7751886    1.0696401   -5.6483394 
H     1.2631514    0.7736766   -6.0280635 
H     0.4108541    0.1788759   -4.5747807 
H     1.8250001    1.2644674   -4.4146429 
H     0.1143243    4.3676202   -5.7672655 
H     1.1744200    3.2408817   -6.6611908 
H     1.6036608    3.7509865   -5.0003490 
H     0.6726035    1.2921971   -2.5542467 
H    -1.9556943    4.1138162   -4.4952154 
H    -5.1818979    5.5001829   -3.2409687 
H    -4.8409068    3.7575434   -3.0232881 
H    -4.0377697    4.6741680   -4.3268430 
H    -3.3719566    7.2438647   -2.6901044 
H    -1.7924933    6.7155798   -2.0329070 
H    -2.2027264    6.3954177   -3.7408117 
H    -4.2737720    4.2796929   -0.5295418 
H    -3.0933276    5.5693313   -0.1535867 
H    -4.6533340    5.9869416   -0.9002806 
H    -2.1013185    3.5955963   -0.2117656 
H     1.8835429    1.4075949    2.3864122 
H     4.0117935    4.9017303    4.8433134 
H     4.9723686    3.5129942    5.3977806 
H     4.9284225    3.9271212    3.6592085 
H     4.3241894    1.2147896    5.0193349 
H     2.8651991    0.7468423    4.1211640 
H     4.2678642    1.4415593    3.2522542 
H     1.8491252    3.9360430    5.8923555 
H     1.3983351    2.2337100    5.5879736 
H     2.8520102    2.6144400    6.5619749 
H     2.3116941    5.4651896    3.7938607 
H    -0.0020143    4.6403581    0.2507630 
H     2.8517961    7.3687504    1.4541491 
H     1.7992864    8.6742946    2.0748128 
H     2.4516676    7.4559378    3.1919437 
H     0.9324710    6.8294680   -0.2864568 
H     0.0633975    8.2003097    0.4643739 
H    -0.7357689    6.6194943    0.3220010 
H     0.0929835    6.8293020    3.9990301 
H    -0.5522403    8.1288517    2.9528521 
H    -1.1930887    6.4616733    2.8151105 
H    -0.7529281    2.0541876    3.0272752 
H    -2.6208298    1.1097340    4.3662448 
H    -4.2729658   -0.4276308    3.3241444 
H    -5.5535030    1.4906475   -2.5475867 
H    -5.8119699    2.3045008   -0.9859265 
H    -5.9407434   -0.7394389   -1.4540028 
H    -7.3421553    0.3364292   -1.3518958 
H    -5.9149214    0.9087671    1.0623420 
H    -7.3791845   -0.0760957    0.9298324 
H    -5.9685141   -2.1385895    0.6017748 
H    -5.7070168   -1.3354017    2.1682287 
H    -4.1861476    0.4324386   -3.6456701 
H    -2.5951067   -1.2053559   -4.6303237 
H    -0.7886997   -2.1971162   -3.2533148 
H     1.5914595   -1.7344785   -2.8591583 
H     3.3663808   -1.3241943   -3.9627546 
H     4.4356610   -1.9569103   -5.2349821 
H     4.6076569   -2.5478010   -3.5562105 
H     1.1142569   -3.6802945   -5.9156793 
H     1.2657837   -2.0157139   -5.2852982 
H     2.3354137   -2.5674171   -6.6049589 
H     4.2053350   -4.2140826   -6.1460889 
H     2.9934959   -5.3763604   -5.5595793 
H     4.4045911   -4.9607028   -4.5377984 
H     2.4766322   -5.9047340   -3.5125611 
H     0.1773371   -4.6991221   -0.0677583 
H     1.2618990   -6.6215450    0.8233440 
H    -0.3960331   -6.7433381    0.1646986 
H     0.5980135   -8.2078983    0.3380339 
H     2.4775699   -8.7199317   -1.1188977 
H     3.2974207   -7.1752848   -0.7492619 
H     2.9934744   -7.6499569   -2.4425309 
H     0.5950429   -7.5774127   -3.3883000 
H    -0.7769220   -7.1792413   -2.3158574 
H     0.1069099   -8.7225438   -2.1051210 
H    -2.1688861   -3.5397850   -0.0111131 
H    -4.9492736   -3.4700083    2.7242571 
H    -4.2515365   -4.4091441    4.0712099 
H    -5.4263647   -5.1764581    2.9741094 
H    -2.1035428   -6.6669024    1.8951862 
H    -2.5269171   -6.2652409    3.5817810 
H    -3.7312837   -7.0586026    2.5279078 
H    -3.2598686   -5.4759299   -0.0495496 
H    -4.3656305   -4.1045857    0.2617152 
H    -4.8646244   -5.7750798    0.6606851 
H    -2.1198842   -4.0136950    4.2775531 
H     0.7356315   -1.4095931    2.3486789 
H    -0.8351802   -1.6695101    6.8454353 
H    -1.9413697   -2.7793244    6.0026418 
H    -1.8100677   -1.0818478    5.4627269 
H     1.7837105   -1.3587340    4.2262909 
H     1.2465393   -0.8720236    5.8516915 
H     0.4113180   -0.2250493    4.4100576 
H     1.0930923   -3.3446923    6.4358184 
H    -0.0089442   -4.4225929    5.5313581 
H     1.4920952   -3.8402120    4.7593580 
