203
Energy =
C     2.2856908    1.3939808    2.6831516 
C     1.0429553    1.8875260    3.1950870 
C     0.0485911    0.9816980    3.6303258 
H     0.7998043    2.9531088    3.0997037 
Pd    0.6058682    0.6254392    1.4501024 
P    -1.5202907    0.2557768    0.5641970 
P     1.7156291   -0.4083645   -0.3139061 
H     2.6596381    0.4525556    3.1080145 
H     0.3904806   -0.0367345    3.8740551 
C     5.3569601    3.8559945    0.9318033 
C     4.0257799    4.3049116    0.9435520 
C     3.0167290    3.5102215    1.4964407 
C     3.3166152    2.2499175    2.0657053 
C     4.6582999    1.8081814    2.0371779 
C     5.6665298    2.6026390    1.4795251 
H     6.1451361    4.4808746    0.4991785 
H     3.7735080    5.2800679    0.5145826 
H     1.9818114    3.8685693    1.4762115 
H     4.9093603    0.8303118    2.4582649 
H     6.6995004    2.2411542    1.4810980 
C    -3.9110807    1.7670443    5.0923208 
C    -3.4147218    0.4567871    5.0250228 
C    -2.1216122    0.2256321    4.5470952 
C    -1.2988382    1.2951680    4.1219513 
C    -1.8178705    2.6086380    4.1866805 
C    -3.1100268    2.8396614    4.6668324 
H    -4.9184541    1.9527931    5.4782216 
H    -4.0337253   -0.3861816    5.3493486 
H    -1.7381379   -0.7980296    4.4951346 
H    -1.2071623    3.4567311    3.8646664 
H    -3.4967037    3.8627057    4.7076368 
C    -6.6659352    1.0919075    2.2745814 
C    -6.2742546    2.5276577    1.8606766 
C    -7.0253755    2.8946945    0.5532182 
C    -6.7106503    3.4961452    2.9872875 
C    -4.7625532    2.6500894    1.5849479 
C    -3.9554631    1.5161799    1.3700364 
C    -4.1594382    3.9169108    1.4713031 
C    -2.7903669    4.0956730    1.1862696 
C    -2.1953535    5.5160709    1.1202643 
C    -0.6557589    5.4939097    1.0145799 
C    -2.5749273    6.3053541    2.3989790 
C    -2.7710454    6.2363525   -0.1263913 
C    -2.0206551    2.9433031    0.9585406 
C    -2.6035734    1.6613529    1.0287565 
C    -2.2922765   -1.3114935    1.0933419 
C    -3.5354097   -1.7330713    0.5907505 
C    -4.1173049   -2.9265250    1.0537569 
C    -5.5143565   -3.3879784    0.5947154 
C    -6.4933642   -3.2317565    1.7880524 
C    -5.4720473   -4.8728713    0.1555916 
C    -6.0349210   -2.5463227   -0.5901882 
C    -3.3945474   -3.6879785    1.9948564 
C    -2.1193294   -3.3207514    2.4699634 
C    -1.5834389   -2.1093013    2.0072129 
C    -1.3698618   -4.2186019    3.4729302 
C    -1.2802830   -5.6617965    2.9157722 
C     0.0664499   -3.7128479    3.7299725 
C    -2.1463470   -4.2260876    4.8147638 
C    -1.6254786    0.2352583   -1.2774573 
C    -2.2829724    1.2647761   -1.9800141 
C    -2.3418284    1.2264767   -3.3777276 
C    -1.7516916    0.1776708   -4.0913882 
C    -1.0218394   -0.8334677   -1.9790880 
C    -1.0988589   -0.8527602   -3.3953954 
C    -0.3967360   -2.0206223   -1.3188878 
C    -1.0963209   -3.2495266   -1.4531246 
O    -2.3200922   -3.1613359   -2.0526494 
C    -2.8432947   -4.2795930   -2.7879837 
C    -2.1487118   -4.4468941   -4.1405020 
C    -2.2810931   -3.2123782   -5.0692837 
C    -0.9866188   -2.4178081   -5.2517133 
O    -0.4757969   -1.9053785   -4.0077276 
C    -0.5553413   -4.4460664   -0.9567977 
C     0.6958847   -4.4244636   -0.3317334 
C     1.3999322   -3.2252222   -0.1789992 
C     0.8582429   -2.0154461   -0.6617068 
C     1.8035587    0.4837079   -1.9022677 
C     2.2013294   -0.1959907   -3.0718052 
C     2.3379785    0.5018554   -4.2792433 
C     2.8052994   -0.1795591   -5.5792212 
C     1.7375013    0.0336705   -6.6817691 
C     3.0174692   -1.6957189   -5.3864307 
C     4.1462054    0.4566806   -6.0284257 
C     2.0397093    1.8840302   -4.2809199 
C     1.6173177    2.5815606   -3.1373540 
C     1.5118261    1.8536907   -1.9332411 
C     1.2569304    4.0804743   -3.1622287 
C    -0.2590035    4.2302954   -2.8765937 
C     1.5656243    4.7356112   -4.5241809 
C     2.0639344    4.8221783   -2.0689523 
C     3.4368167   -0.8738671    0.1238490 
C     4.5199580   -0.6316050   -0.7346822 
C     5.8252208   -1.0087475   -0.3645141 
C     7.0346781   -0.7889586   -1.2956501 
C     8.0243121    0.1985908   -0.6273117 
C     6.6122738   -0.2093193   -2.6627315 
C     7.7409705   -2.1472736   -1.5414704 
C     6.0027213   -1.6150418    0.8934920 
C     4.9380341   -1.8613032    1.7860084 
C     3.6503018   -1.4743427    1.3809515 
C     5.2099557   -2.5301299    3.1479123 
C     5.8024830   -3.9423896    2.9059492 
C     3.9234034   -2.6780834    3.9875756 
C     6.2210159   -1.6718240    3.9506364 
H    -7.7406227    1.0553352    2.5222277 
H    -6.0966314    0.7566405    3.1592564 
H    -6.4935871    0.3675913    1.4595113 
H    -8.1177072    2.8189115    0.7014129 
H    -6.7380547    2.2137474   -0.2674754 
H    -6.7922672    3.9266013    0.2370361 
H    -6.1620935    3.2895569    3.9213725 
H    -7.7900689    3.3788175    3.1871207 
H    -6.5409152    4.5522593    2.7172766 
H    -4.3777655    0.5146759    1.4621317 
H    -4.7796401    4.8053676    1.6234158 
H    -0.2666210    6.5262868    1.0001382 
H    -0.3087211    4.9984004    0.0929053 
H    -0.2015454    4.9781156    1.8798782 
H    -2.1432572    7.3209186    2.3604857 
H    -3.6669725    6.4124144    2.5112306 
H    -2.1870310    5.8024565    3.3025469 
H    -2.5060811    5.6909799   -1.0488890 
H    -3.8714969    6.3062082   -0.0760657 
H    -2.3672463    7.2620769   -0.2006943 
H    -0.9541635    3.0214612    0.7211294 
H    -4.0318179   -1.1309029   -0.1733183 
H    -6.5405076   -2.1798981    2.1203097 
H    -7.5104391   -3.5499874    1.4966416 
H    -6.1768576   -3.8463617    2.6489428 
H    -6.4703773   -5.1949551   -0.1892077 
H    -4.7569649   -5.0177779   -0.6716917 
H    -5.1763855   -5.5413489    0.9819794 
H    -6.1821475   -1.4883357   -0.3103307 
H    -5.3381008   -2.5811416   -1.4460046 
H    -7.0114194   -2.9366561   -0.9245319 
H    -3.8405769   -4.6166732    2.3655371 
H    -0.5945773   -1.7712366    2.3287449 
H    -0.7495767   -5.6713512    1.9484325 
H    -0.7317575   -6.3098741    3.6221540 
H    -2.2787074   -6.1058154    2.7629025 
H     0.6477487   -3.6615498    2.7924381 
H     0.5877597   -4.3995446    4.4188215 
H     0.0751509   -2.7119771    4.1982155 
H    -3.1731418   -4.6095395    4.6836896 
H    -1.6346469   -4.8685575    5.5535309 
H    -2.2161630   -3.2067894    5.2347243 
H    -2.7581159    2.0859310   -1.4379835 
H    -2.8584608    2.0246643   -3.9206715 
H    -1.8004796    0.1646522   -5.1831016 
H    -3.9095440   -4.0357029   -2.9234194 
H    -2.7887938   -5.2081400   -2.1906694 
H    -2.5915001   -5.3363959   -4.6243490 
H    -1.0827016   -4.6856106   -3.9667087 
H    -2.6043997   -3.5293538   -6.0774831 
H    -3.0663374   -2.5303615   -4.6923850 
H    -1.1254778   -1.6045509   -5.9873944 
H    -0.1764611   -3.0647644   -5.6259049 
H    -1.1020505   -5.3870951   -1.0547226 
H     1.1303230   -5.3576595    0.0415571 
H     2.3819666   -3.2372249    0.2989297 
H     2.3906048   -1.2705729   -3.0206780 
H     0.7661474   -0.3803864   -6.3640023 
H     2.0438099   -0.4709790   -7.6153099 
H     1.5922244    1.1031883   -6.9111426 
H     3.8149612   -1.9045076   -4.6513508 
H     2.0931015   -2.1903965   -5.0420352 
H     3.3193901   -2.1552406   -6.3434262 
H     4.5021075   -0.0188943   -6.9598380 
H     4.9213376    0.3246377   -5.2538319 
H     4.0384004    1.5382153   -6.2208268 
H     2.1399435    2.4300271   -5.2220613 
H     1.1936575    2.3449790   -1.0067780 
H    -0.8544210    3.7465746   -3.6689902 
H    -0.5408320    3.7594066   -1.9192474 
H    -0.5377011    5.2984869   -2.8316297 
H     1.3082453    5.8082037   -4.4856200 
H     0.9764733    4.2831879   -5.3411930 
H     2.6367135    4.6559969   -4.7806898 
H     3.1494229    4.7125232   -2.2357478 
H     1.8405281    4.4312959   -1.0634223 
H     1.8162268    5.8986836   -2.0750787 
H     4.3401580   -0.1447296   -1.6941816 
H     8.3622631   -0.1678744    0.3576819 
H     7.5496995    1.1841064   -0.4833677 
H     8.9172301    0.3343215   -1.2631730 
H     5.9156191   -0.8841382   -3.1909562 
H     6.1280236    0.7778381   -2.5609578 
H     7.5025585   -0.0797138   -3.3018376 
H     7.0471651   -2.8725732   -2.0017942 
H     8.1230800   -2.5880689   -0.6047442 
H     8.6004062   -2.0105552   -2.2215994 
H     7.0139009   -1.9084783    1.1945543 
H     2.7925531   -1.6354692    2.0407117 
H     6.0079478   -4.4420366    3.8694490 
H     6.7495152   -3.8950191    2.3413749 
H     5.0966019   -4.5699596    2.3337420 
H     3.4623317   -1.6977370    4.2068355 
H     4.1627368   -3.1537165    4.9540100 
H     3.1720536   -3.3096099    3.4822244 
H     6.4359440   -2.1460450    4.9246642 
H     7.1784486   -1.5579542    3.4141881 
H     5.8163639   -0.6623612    4.1435268 
