203
Energy =
C     2.3894998    1.4640875    2.4206937 
C     1.1982105    1.9575246    3.0457660 
C     0.2532552    1.0550543    3.5837420 
H     0.9354140    3.0186383    2.9549285 
Pd    0.6206674    0.6615277    1.3662536 
P    -1.5522307    0.3145201    0.5914413 
P     1.6570576   -0.4602370   -0.3942093 
H     2.8302958    0.5445037    2.8276704 
H     0.6159468    0.0373721    3.7996243 
C     5.0931331    3.8514742    0.0644468 
C     3.7876578    4.3103743    0.3087344 
C     2.9040479    3.5461458    1.0760075 
C     3.3068411    2.3075426    1.6311247 
C     4.6240089    1.8604156    1.3811765 
C     5.5042308    2.6245589    0.6050201 
H     5.7831852    4.4482738   -0.5408082 
H     3.4563215    5.2680466   -0.1064010 
H     1.8829003    3.9084807    1.2323999 
H     4.9535905    0.9012736    1.7952648 
H     6.5200972    2.2595765    0.4242505 
C    -3.5402835    1.8668965    5.4221907 
C    -2.7672131    2.9346814    4.9395791 
C    -1.5313126    2.6935804    4.3331721 
C    -1.0424675    1.3744965    4.1950983 
C    -1.8412680    0.3082421    4.6725615 
C    -3.0774525    0.5499223    5.2782397 
H    -4.4980485    2.0633834    5.9144105 
H    -3.1293076    3.9624484    5.0411002 
H    -0.9375725    3.5392429    3.9757319 
H    -1.4838183   -0.7202258    4.5600053 
H    -3.6788717   -0.2894337    5.6424286 
C    -6.4796012    1.3905485    3.1439508 
C    -6.2557552    2.5073262    2.0955675 
C    -6.9468094    2.1088783    0.7640082 
C    -6.9079711    3.8026173    2.6233068 
C    -4.7515583    2.6870794    1.8088589 
C    -3.9608255    1.5591325    1.5018973 
C    -4.1378155    3.9499021    1.7640676 
C    -2.7753963    4.1316414    1.4382068 
C    -2.1772634    5.5520140    1.3909701 
C    -2.7039551    6.2534144    0.1112856 
C    -0.6350836    5.5293495    1.3429900 
C    -2.6020052    6.3639387    2.6396974 
C    -2.0241998    2.9893889    1.1245525 
C    -2.6167989    1.7070562    1.1398927 
C    -2.3098200   -1.2640718    1.1128454 
C    -3.5754353   -1.6902907    0.6824906 
C    -4.1404484   -2.8772068    1.1970086 
C    -5.5638685   -3.2921625    0.7718487 
C    -6.5481148   -2.1423431    1.1053989 
C    -6.0451162   -4.5652597    1.4988394 
C    -5.5809553   -3.5622180   -0.7524672 
C    -3.3702020   -3.6341091    2.0978394 
C    -2.0685933   -3.2610067    2.5008176 
C    -1.5589620   -2.0555955    2.0034786 
C    -1.2689158   -4.1507324    3.4709819 
C    -1.1894462   -5.5924292    2.9082420 
C     0.1716612   -3.6307111    3.6648181 
C    -1.9849827   -4.1664840    4.8458747 
C    -1.6550001    0.3799701   -1.2492071 
C    -2.2187136    1.4972749   -1.8986457 
C    -2.2102426    1.5697284   -3.2962373 
C    -1.6466213    0.5444347   -4.0641273 
C    -1.0803822   -0.6670762   -2.0072181 
C    -1.0910705   -0.5748246   -3.4227742 
C    -0.5283336   -1.9260317   -1.4176414 
C    -1.2762734   -3.1119550   -1.6348005 
O    -2.4762504   -2.9441266   -2.2667520 
C    -2.9822998   -3.9869727   -3.1197697 
C    -2.2179179   -4.0681751   -4.4417614 
C    -2.2963819   -2.7727402   -5.2902870 
C    -0.9762325   -2.0066538   -5.3807043 
O    -0.4938550   -1.6108845   -4.0847112 
C    -0.7986336   -4.3546467   -1.1870499 
C     0.4407765   -4.4229057   -0.5416064 
C     1.2020291   -3.2683519   -0.3269299 
C     0.7213810   -2.0149868   -0.7580361 
C     1.8378873    0.4022095   -1.9901935 
C     2.2943071   -0.2954026   -3.1240735 
C     2.4906669    0.3835279   -4.3380110 
C     3.0518978   -0.3112966   -5.5938779 
C     3.2163800   -1.8308677   -5.3813731 
C     4.4392196    0.2992863   -5.9222126 
C     2.0980122   -0.0814623   -6.7927093 
C     2.1755482    1.7569013   -4.3765515 
C     1.6793173    2.4708118   -3.2686172 
C     1.5311029    1.7710963   -2.0582013 
C     1.3526003    3.9702017   -3.4029206 
C     0.6206243    4.5043154   -2.1545275 
C     0.4437503    4.2075673   -4.6345611 
C     2.6822487    4.7491385   -3.5770681 
C     3.3312445   -1.0207910    0.1093136 
C     3.4521398   -1.6247191    1.3731885 
C     4.7010274   -2.0531326    1.8598324 
C     4.7855201   -2.7448662    3.2347083 
C     4.0232137   -1.9085265    4.2941255 
C     6.2433024   -2.9162314    3.7108263 
C     4.1312147   -4.1460139    3.1133509 
C     5.8238530   -1.8478481    1.0357178 
C     5.7398904   -1.2306165   -0.2306260 
C     4.4747956   -0.8119303   -0.6809807 
C     7.0042090   -1.0730581   -1.0985219 
C     7.4096328   -2.4791583   -1.6150501 
C     8.1673919   -0.4803347   -0.2649377 
C     6.7554278   -0.1513316   -2.3118097 
H    -7.5610050    1.2446019    3.3128468 
H    -6.0105387    1.6562022    4.1051019 
H    -6.0599217    0.4244488    2.8188120 
H    -8.0311752    1.9659120    0.9203739 
H    -6.5316227    1.1670181    0.3652795 
H    -6.8063346    2.8927494   -0.0007573 
H    -6.4191672    4.1526037    3.5499744 
H    -7.9714489    3.6159815    2.8514115 
H    -6.8704113    4.6180299    1.8799670 
H    -4.4028787    0.5605736    1.5347989 
H    -4.7374004    4.8336472    1.9920903 
H    -2.3075194    7.2825238    0.0424226 
H    -3.8063856    6.3093699    0.1137378 
H    -2.3917777    5.7002821   -0.7922582 
H    -0.2448299    6.5612903    1.3340833 
H    -0.2131853    5.0206864    2.2282299 
H    -0.2566797    5.0263020    0.4390958 
H    -3.6955184    6.4918034    2.7034020 
H    -2.2600479    5.8706558    3.5665160 
H    -2.1539298    7.3722781    2.6038225 
H    -0.9649920    3.0730159    0.8570718 
H    -4.1193057   -1.0978742   -0.0601999 
H    -6.2925139   -1.2147040    0.5655393 
H    -7.5767075   -2.4230445    0.8173466 
H    -6.5413990   -1.9218375    2.1870019 
H    -7.0693309   -4.8132555    1.1711627 
H    -5.4039108   -5.4351431    1.2714112 
H    -6.0688633   -4.4265178    2.5941580 
H    -5.2298801   -2.6870218   -1.3249080 
H    -4.9243658   -4.4141027   -0.9972603 
H    -6.6048832   -3.8073484   -1.0868140 
H    -3.7900846   -4.5586982    2.5010956 
H    -0.5592208   -1.7087098    2.2791798 
H    -0.7011434   -5.5955813    1.9187861 
H    -0.6048803   -6.2362523    3.5891936 
H    -2.1896665   -6.0448779    2.7978413 
H     0.7076669   -3.5733456    2.7012394 
H     0.7325838   -4.3120779    4.3269478 
H     0.1907570   -2.6298653    4.1325897 
H    -3.0115091   -4.5631460    4.7612266 
H    -1.4327502   -4.8020110    5.5610867 
H    -2.0486560   -3.1475998    5.2677531 
H    -2.6725992    2.3022252   -1.3150055 
H    -2.6534047    2.4372244   -3.7961183 
H    -1.6363605    0.6203783   -5.1542470 
H    -4.0328175   -3.7056223   -3.2939033 
H    -2.9822545   -4.9608780   -2.5964615 
H    -2.6389369   -4.9196610   -5.0066111 
H    -1.1637601   -4.3269035   -4.2287356 
H    -2.6032223   -3.0115325   -6.3248090 
H    -3.0708216   -2.0946010   -4.8852347 
H    -1.0700917   -1.1343438   -6.0526939 
H    -0.1744683   -2.6484138   -5.7808600 
H    -1.3852971   -5.2634413   -1.3423379 
H     0.8239295   -5.3929150   -0.2079995 
H     2.1784467   -3.3493592    0.1563950 
H     2.4850752   -1.3681033   -3.0454188 
H     3.9462647   -2.0550334   -4.5830775 
H     3.5861220   -2.3004340   -6.3091853 
H     2.2565927   -2.3063736   -5.1138948 
H     4.3677199    1.3835096   -6.1169307 
H     5.1420311    0.1514401   -5.0842528 
H     4.8660894   -0.1802898   -6.8212034 
H     2.4874432   -0.5894227   -7.6927767 
H     1.9918026    0.9898224   -7.0345508 
H     1.0943194   -0.4819234   -6.5756836 
H     2.3216791    2.2963174   -5.3180356 
H     1.1668591    2.2697518   -1.1559652 
H    -0.3165407    3.9496331   -1.9693743 
H     1.2530147    4.4285456   -1.2545565 
H     0.3657109    5.5693787   -2.2931702 
H     0.1899003    5.2792355   -4.7171202 
H    -0.4939812    3.6331668   -4.5428891 
H     0.9360870    3.9107110   -5.5762888 
H     3.2186550    4.4262381   -4.4863953 
H     3.3474749    4.5806900   -2.7124839 
H     2.4862529    5.8332413   -3.6636696 
H     2.5532138   -1.7565046    1.9868511 
H     2.9477640   -1.8218278    4.0580909 
H     4.4437091   -0.8900610    4.3707508 
H     4.1022955   -2.3878229    5.2855682 
H     6.8212123   -3.5728992    3.0375283 
H     6.7637754   -1.9448013    3.7814246 
H     6.2549429   -3.3803708    4.7119327 
H     4.6672064   -4.7642041    2.3722461 
H     3.0771898   -4.0692929    2.7955679 
H     4.1570946   -4.6701121    4.0856803 
H     6.8036813   -2.1763527    1.3891508 
H     4.3713083   -0.3094704   -1.6436250 
H     8.3155594   -2.4114428   -2.2438687 
H     6.5991153   -2.9219191   -2.2205708 
H     7.6242402   -3.1667208   -0.7782461 
H     7.8981513    0.5074259    0.1471985 
H     9.0611321   -0.3549315   -0.9009063 
H     8.4514154   -1.1338740    0.5771847 
H     7.6900400   -0.0310360   -2.8860464 
H     5.9998101   -0.5728806   -2.9970666 
H     6.4143806    0.8512789   -1.9985920 
