104
Energy =
C    -2.5017817    2.8688627   -0.3294661 
C    -1.2922124    3.5542869   -0.5821983 
C    -0.4766898    3.2384399   -1.7083341 
H    -0.8978367    4.2246187    0.1923842 
Pd   -0.7420601    1.4116678   -0.4459066 
P     0.8841714    0.0878402   -1.4916734 
P    -1.2291084   -0.2077033    1.1725410 
H    -2.9521462    2.3073827   -1.1639972 
H    -0.9838156    2.8851543   -2.6168811 
C    -5.1827038    3.6077002    2.9451441 
C    -4.2170544    4.5685363    2.6078554 
C    -3.3320223    4.3361114    1.5495309 
C    -3.4046116    3.1394282    0.8000048 
C    -4.3946106    2.1888512    1.1405502 
C    -5.2683311    2.4163079    2.2070860 
H    -5.8713688    3.7891530    3.7765997 
H    -4.1578813    5.5071729    3.1685286 
H    -2.5998307    5.1056600    1.2839894 
H    -4.4568035    1.2527077    0.5742487 
H    -6.0165066    1.6612499    2.4677771 
C     3.4545713    4.8551881   -2.4004831 
C     2.9414727    4.8079014   -1.0928813 
C     1.6657782    4.2889522   -0.8556073 
C     0.8697666    3.8046955   -1.9210725 
C     1.3981438    3.8619673   -3.2295678 
C     2.6764862    4.3821890   -3.4664056 
H     4.4554668    5.2591681   -2.5838524 
H     3.5439885    5.1730912   -0.2545573 
H     1.2899054    4.2431325    0.1728502 
H     0.7978978    3.4901018   -4.0667595 
H     3.0654469    4.4142354   -4.4893759 
C    -1.6589030    1.7468177    3.1160380 
C    -2.2050411    2.2885137    4.2852896 
C    -3.1424979    1.5536927    5.0268563 
C    -3.5319350    0.2778941    4.5944339 
C    -2.9812515   -0.2727940    3.4289692 
C    -2.0302203    0.4547193    2.6873360 
C    -2.2620075   -1.6228007    0.6413733 
C    -2.2618379   -2.8382869    1.3565630 
C    -3.0774602   -3.8955968    0.9356324 
C    -3.8924350   -3.7502365   -0.1979270 
C    -3.8894087   -2.5454748   -0.9172030 
C    -3.0754446   -1.4835548   -0.5000634 
C     0.3525134   -0.9447116    1.7826046 
C     0.8923691   -0.5127211    3.0112923 
C     2.1208810   -1.0111871    3.4615104 
C     2.8210007   -1.9556577    2.7036749 
C     1.0559805   -1.8892247    0.9933689 
C     2.2824269   -2.4010568    1.4871643 
C     0.5676880   -2.4515420   -0.3031207 
C     0.2751811   -3.8373018   -0.3323325 
O     0.3729811   -4.4941656    0.8662058 
C     1.0368612   -5.7722826    0.9080481 
C     2.5113304   -5.6814419    0.5000709 
C     3.3038988   -4.5901617    1.2273524 
O     2.9418034   -3.2974190    0.6929452 
C    -0.1436621   -4.4674535   -1.5135560 
C    -0.2526682   -3.7183094   -2.6897091 
C     0.0563429   -2.3526319   -2.6943888 
C     0.4675230   -1.7130127   -1.5077922 
C     1.0558101    0.5264908   -3.2684671 
C     2.3020706    0.7463386   -3.8828132 
C     2.3638372    1.0933186   -5.2414530 
C     1.1892341    1.2249636   -5.9945981 
C    -0.0595012    1.0176285   -5.3844200 
C    -0.1262952    0.6789090   -4.0273873 
C     2.5606058    0.1465171   -0.7621128 
C     2.8548689    1.1241630    0.2067140 
C     4.1235862    1.1631332    0.7984675 
C     5.0997703    0.2262687    0.4267571 
C     4.8074046   -0.7534832   -0.5351462 
C     3.5407408   -0.7989521   -1.1295319 
H    -0.9448058    2.3299957    2.5218021 
H    -1.9139212    3.2932246    4.6065853 
H    -3.5780779    1.9818361    5.9354564 
H    -4.2715924   -0.2936694    5.1646665 
H    -3.3001224   -1.2648536    3.0966730 
H    -1.5962073   -2.9700204    2.2155986 
H    -3.0641367   -4.8411269    1.4872662 
H    -4.5250476   -4.5811553   -0.5272832 
H    -4.5153516   -2.4355429   -1.8087387 
H    -3.0527320   -0.5463706   -1.0689568 
H     0.3460681    0.2065438    3.6268200 
H     2.5334918   -0.6597267    4.4126997 
H     3.7873460   -2.3436788    3.0391957 
H     0.5041616   -6.5165104    0.2853972 
H     0.9385858   -6.0833251    1.9609213 
H     2.5958404   -5.4991215   -0.5866793 
H     2.9807966   -6.6632527    0.6986068 
H     3.1214462   -4.6149677    2.3179759 
H     4.3853480   -4.7223829    1.0506513 
H    -0.3875962   -5.5334080   -1.5094326 
H    -0.5753420   -4.2042549   -3.6161562 
H    -0.0036695   -1.7933340   -3.6307960 
H     3.2248937    0.6645488   -3.3014925 
H     3.3384378    1.2687463   -5.7084499 
H     1.2427710    1.4957016   -7.0540763 
H    -0.9812099    1.1254379   -5.9655694 
H    -1.1027585    0.5284854   -3.5500121 
H     2.0799765    1.8380469    0.5033883 
H     4.3474339    1.9206414    1.5565202 
H     6.0897617    0.2542539    0.8941249 
H     5.5627599   -1.4956448   -0.8125439 
H     3.3015909   -1.5870748   -1.8508796 
