104
Energy =
C    -0.2329578    3.5327277   -1.4731898 
C    -1.5235181    3.3440455   -0.8884605 
C    -1.7145167    3.4055524    0.5103278 
H    -2.3505846    3.0028317   -1.5245781 
Pd   -0.1854456    1.8062114   -0.0674514 
P    -0.8871923    0.0756685    1.3737351 
P     1.6015965    0.5467220   -0.8687605 
H     0.4575961    4.2239195   -0.9678604 
H    -0.9627474    3.9586850    1.0952928 
C     0.5737584    2.8464943   -5.6490549 
C    -0.4342974    2.1133826   -5.0003586 
C    -0.7051956    2.3350303   -3.6466242 
C     0.0205304    3.3009927   -2.9095445 
C     1.0239709    4.0341964   -3.5782857 
C     1.2996251    3.8082117   -4.9324445 
H     0.7910129    2.6670431   -6.7069167 
H    -1.0049115    1.3584687   -5.5519885 
H    -1.4686377    1.7290740   -3.1460825 
H     1.5940697    4.7887332   -3.0266078 
H     2.0884010    4.3829316   -5.4281083 
C    -5.4151724    2.8131275    2.6170920 
C    -4.3683793    3.5469176    3.1937089 
C    -3.1653728    3.7173729    2.4997613 
C    -2.9884836    3.1702094    1.2088715 
C    -4.0515522    2.4292309    0.6420642 
C    -5.2492051    2.2511187    1.3402062 
H    -6.3554989    2.6746836    3.1605725 
H    -4.4854673    3.9827696    4.1908103 
H    -2.3493279    4.2860638    2.9577521 
H    -3.9412022    1.9770946   -0.3472962 
H    -6.0584833    1.6698805    0.8862522 
C     3.0985112    0.4652762   -3.3362792 
C     4.0444755    1.0123950   -4.2159256 
C     4.6040475    2.2727094   -3.9631053 
C     4.2124555    2.9944712   -2.8255782 
C     3.2516793    2.4640314   -1.9576085 
C     2.6863853    1.1957139   -2.2052779 
C     2.8912589    0.0557211    0.3458597 
C     2.9769047    0.7108010    1.5867220 
C     4.0108705    0.3919853    2.4784715 
C     4.9600049   -0.5798093    2.1308812 
C     4.8781206   -1.2324849    0.8896831 
C     3.8519876   -0.9137047   -0.0061472 
C     0.7670464   -0.9774929   -1.4606495 
C     0.2702642   -1.0045098   -2.7830435 
C    -0.4519816   -2.1101787   -3.2447710 
C    -0.6966624   -3.1978791   -2.3979055 
C     0.4748004   -2.0405473   -0.5700547 
C    -0.2382553   -3.1605061   -1.0727933 
C     0.8593901   -2.0874254    0.8742937 
C     1.7520499   -3.1110637    1.2702910 
O     2.2740878   -3.8653187    0.2535725 
C     2.3425144   -5.2956912    0.4111351 
C     0.9591270   -5.9346739    0.5781503 
C    -0.0692426   -5.5082027   -0.4748180 
O    -0.5186516   -4.1642250   -0.1888677 
C     2.1073696   -3.2847955    2.6167563 
C     1.5589540   -2.4380986    3.5856156 
C     0.6639743   -1.4239137    3.2218126 
C     0.3087375   -1.2434350    1.8710507 
C    -1.5565388    0.6924300    2.9660434 
C    -0.7528294    1.6004535    3.6898007 
C    -1.1680068    2.0696756    4.9420052 
C    -2.4023166    1.6582656    5.4695343 
C    -3.2208274    0.7885785    4.7355691 
C    -2.8023768    0.3014726    3.4884394 
C    -2.2004686   -0.9062333    0.5431279 
C    -2.6900954   -0.4975457   -0.7122322 
C    -3.6458850   -1.2697826   -1.3834875 
C    -4.1162002   -2.4586031   -0.8053598 
C    -3.6196331   -2.8801428    0.4377956 
C    -2.6599568   -2.1131691    1.1102372 
H     2.7000720   -0.5348451   -3.5288881 
H     4.3541392    0.4405137   -5.0968816 
H     5.3485586    2.6900457   -4.6488955 
H     4.6486840    3.9773093   -2.6190793 
H     2.9418909    3.0315304   -1.0716331 
H     2.2257111    1.4637105    1.8535865 
H     4.0722411    0.9005612    3.4461009 
H     5.7667249   -0.8297239    2.8278629 
H     5.6162371   -1.9945397    0.6191434 
H     3.7848909   -1.4313719   -0.9686993 
H     0.4437248   -0.1549670   -3.4489914 
H    -0.8326871   -2.1207323   -4.2713473 
H    -1.2703513   -4.0631398   -2.7429940 
H     3.0045914   -5.5710318    1.2543836 
H     2.8242005   -5.6383425   -0.5191449 
H     0.5454376   -5.6954648    1.5746814 
H     1.0841678   -7.0330973    0.5377300 
H     0.3506430   -5.5571298   -1.4969429 
H    -0.9557256   -6.1644004   -0.4289038 
H     2.8143235   -4.0690300    2.9014707 
H     1.8314083   -2.5685348    4.6379133 
H     0.2338706   -0.7822858    3.9946243 
H     0.2038497    1.9339085    3.2698720 
H    -0.5322740    2.7628202    5.5027470 
H    -2.7317718    2.0287659    6.4457285 
H    -4.1963953    0.4878354    5.1308344 
H    -3.4531138   -0.3695009    2.9208423 
H    -2.2863358    0.4113368   -1.1724725 
H    -4.0122217   -0.9513672   -2.3649193 
H    -4.8604528   -3.0657023   -1.3313874 
H    -3.9680190   -3.8193827    0.8791247 
H    -2.2435190   -2.4676865    2.0587569 
