203
Energy =
C     3.3850398    1.3283387   -1.0394980 
C     3.8362442    0.3233667   -0.1537433 
C     3.5825344   -1.0560441   -0.4521889 
H     4.2214297    0.6068017    0.8335957 
Pd    1.6652778    0.0329594   -0.2946028 
P     0.1191303   -1.6995282   -0.4854021 
P     0.0703566    1.6599805    0.1851939 
H     3.1582919    1.0060407   -2.0685931 
H     3.5824803   -1.3487523   -1.5106710 
C     3.5644785    5.6022060   -0.6736699 
C     2.9813307    4.9985134   -1.7977215 
C     2.9404503    3.6050492   -1.8964093 
C     3.4735801    2.7843789   -0.8743130 
C     4.0510594    3.4084430    0.2551734 
C     4.0946058    4.8023107    0.3519372 
H     3.6092313    6.6933295   -0.5982720 
H     2.5610966    5.6135980   -2.6002919 
H     2.4836861    3.1373143   -2.7739583 
H     4.4748800    2.8028693    1.0610066 
H     4.5429463    5.2692790    1.2343608 
C     4.2256951   -4.3193248    2.2855640 
C     4.1758121   -4.5424414    0.9018397 
C     3.9655246   -3.4762269    0.0194471 
C     3.8124407   -2.1571289    0.5022456 
C     3.8605410   -1.9463997    1.9012839 
C     4.0666380   -3.0137221    2.7804767 
H     4.3880339   -5.1541574    2.9750782 
H     4.3065474   -5.5534535    0.5031309 
H     3.9148140   -3.6632543   -1.0581952 
H     3.7195872   -0.9389512    2.3064941 
H     4.1023585   -2.8285364    3.8593553 
C     0.7943699    1.2186560   -5.0710178 
C    -0.1767996    2.4192379   -5.0926300 
C     0.5713941    3.6608997   -5.6428122 
C    -1.3575634    2.0663171   -6.0318177 
C    -0.7093718    2.7478877   -3.6847893 
C    -0.1907451    2.1423903   -2.5296443 
C    -1.7336000    3.7002341   -3.5122852 
C    -2.2799341    4.0296649   -2.2548804 
C    -3.3942888    5.0893962   -2.1530402 
C    -3.9722916    5.1779096   -0.7245345 
C    -4.5485649    4.7409323   -3.1259220 
C    -2.7969325    6.4685705   -2.5366039 
C    -1.7532796    3.3842075   -1.1223347 
C    -0.6931176    2.4709914   -1.2593730 
C     0.8227591    2.9438670    1.2588609 
C     1.6837657    2.4852079    2.2769720 
C     2.2324082    3.3795853    3.2116405 
C     3.1539595    2.9102680    4.3551112 
C     2.3217218    2.8751955    5.6634771 
C     4.3481024    3.8821886    4.5236456 
C     3.7255182    1.5007297    4.0906928 
C     1.8816376    4.7394369    3.0929346 
C     1.0599624    5.2347222    2.0624740 
C     0.5408491    4.3120978    1.1345097 
C     0.6898354    6.7302645    2.0100617 
C    -0.3633806    6.9972563    3.1180723 
C     1.9333714    7.6168736    2.2658930 
C     0.0864497    7.1220518    0.6432010 
C    -1.3302853    1.0096970    1.1944790 
C    -1.4452191    1.3223653    2.5640498 
C    -2.4827392    0.7667989    3.3212353 
C    -3.4166159   -0.0941730    2.7339667 
C    -2.2594023    0.1354446    0.5835039 
C    -3.3133166   -0.4003572    1.3670484 
C    -2.2500973   -0.2080377   -0.8722917 
C    -3.2999654    0.3267608   -1.6623764 
O    -4.1346728    1.1954767   -1.0176212 
C    -5.5142894    1.2898682   -1.4123516 
C    -6.3275837    0.0875886   -0.9298662 
C    -6.3312282   -0.0909371    0.6107552 
C    -5.5480418   -1.3104715    1.0996456 
O    -4.1627548   -1.2505870    0.7148408 
C    -3.4149026   -0.0032002   -3.0227882 
C    -2.4908027   -0.8826214   -3.5979491 
C    -1.4480504   -1.4252917   -2.8381771 
C    -1.3195424   -1.0893845   -1.4753372 
C     0.8177661   -3.1026413   -1.4420079 
C     1.5744419   -2.7965472   -2.5945891 
C     2.1933712   -3.8100135   -3.3384421 
C     3.0609720   -3.5111137   -4.5764050 
C     3.0860922   -2.0059437   -4.9170908 
C     2.4985141   -4.2785061   -5.7999731 
C     4.5135913   -3.9739094   -4.2919323 
C     2.0254653   -5.1456847   -2.8996638 
C     1.2733984   -5.4832811   -1.7631770 
C     0.6809156   -4.4326232   -1.0295246 
C     1.0231591   -6.9393146   -1.3221652 
C     1.3191980   -7.1067429    0.1894615 
C     1.8960428   -7.9425003   -2.1042728 
C    -0.4716944   -7.2649681   -1.5853302 
C    -0.5962961   -2.4185303    1.0282222 
C    -0.0229018   -2.1076804    2.2710823 
C    -0.5294439   -2.6865080    3.4481701 
C     0.0575587   -2.3743495    4.8377591 
C    -1.0805894   -2.0301691    5.8304946 
C     1.0281554   -1.1760711    4.7854229 
C     0.8286580   -3.6234234    5.3378084 
C    -1.5901336   -3.6043601    3.3192819 
C    -2.1881976   -3.9304877    2.0847618 
C    -1.6862776   -3.3031695    0.9334037 
C    -3.3246654   -4.9688722    2.0249582 
C    -3.9511779   -5.0513852    0.6167617 
C    -4.4373418   -4.5947667    3.0355003 
C    -2.7384865   -6.3576041    2.3910418 
H     1.1199504    0.9820299   -6.0985232 
H     0.3118750    0.3199173   -4.6483852 
H     1.7044979    1.4311138   -4.4817563 
H     0.9631577    3.4590060   -6.6558382 
H     1.4222976    3.9280672   -4.9910015 
H    -0.0965886    4.5376278   -5.7040384 
H    -1.9196170    1.2010721   -5.6407139 
H    -0.9808373    1.8125137   -7.0385052 
H    -2.0609045    2.9090102   -6.1431232 
H     0.5975772    1.3874198   -2.5941240 
H    -2.1331597    4.2013937   -4.3999738 
H    -4.7953584    5.9126483   -0.6997029 
H    -3.2129986    5.5085363    0.0059985 
H    -4.3699994    4.2038275   -0.3898644 
H    -5.3547362    5.4911519   -3.0435942 
H    -4.2136280    4.7278280   -4.1770792 
H    -4.9726728    3.7501068   -2.8917199 
H    -1.9690743    6.7392817   -1.8582633 
H    -2.4031451    6.4635430   -3.5679405 
H    -3.5705315    7.2545974   -2.4711014 
H    -2.1691059    3.5706868   -0.1297856 
H     1.9120132    1.4149258    2.3289696 
H     1.4787340    2.1677424    5.5699268 
H     2.9497122    2.5556021    6.5145711 
H     1.9074872    3.8716414    5.8963829 
H     5.0229239    3.5162139    5.3169642 
H     4.9296089    3.9598552    3.5876230 
H     4.0246225    4.8967805    4.8103601 
H     2.9343053    0.7360338    4.0373117 
H     4.3034281    1.4718206    3.1492779 
H     4.4061567    1.2123454    4.9097096 
H     2.2762207    5.4455620    3.8289795 
H    -0.0899044    4.6542848    0.3129271 
H     0.0393135    6.7526908    4.1167066 
H    -0.6615073    8.0611879    3.1186069 
H    -1.2666344    6.3829999    2.9553906 
H     2.3629642    7.4524763    3.2686255 
H     1.6549811    8.6831296    2.1997698 
H     2.7210554    7.4188720    1.5197853 
H    -0.8744958    6.6118544    0.4568318 
H    -0.1098330    8.2076934    0.6193992 
H     0.7726342    6.8773498   -0.1865359 
H    -0.7350381    2.0070046    3.0345458 
H    -2.5695295    1.0130333    4.3845677 
H    -4.2163788   -0.5276103    3.3396304 
H    -5.6062060    1.4209709   -2.5060550 
H    -5.8666122    2.2196505   -0.9368263 
H    -5.9376038   -0.8231148   -1.4220568 
H    -7.3596680    0.2234883   -1.3008752 
H    -5.9224456    0.8110951    1.1036810 
H    -7.3671497   -0.2034768    0.9789399 
H    -5.9190946   -2.2338932    0.6260459 
H    -5.6510936   -1.4345352    2.1930476 
H    -4.2160985    0.4225755   -3.6318978 
H    -2.5876126   -1.1523613   -4.6547556 
H    -0.7475772   -2.1244765   -3.3018134 
H     1.6820918   -1.7486059   -2.8905278 
H     2.0761272   -1.6186475   -5.1376315 
H     3.7120098   -1.8372530   -5.8100046 
H     3.5165599   -1.4046314   -4.0955350 
H     2.5000550   -5.3695181   -5.6351386 
H     1.4608107   -3.9676391   -6.0141441 
H     3.1132638   -4.0735062   -6.6943619 
H     5.1573686   -3.7778368   -5.1677865 
H     4.5612005   -5.0543796   -4.0725530 
H     4.9359377   -3.4319670   -3.4268045 
H     2.5053367   -5.9425996   -3.4730873 
H     0.1109851   -4.6585022   -0.1254241 
H     2.3732103   -6.8748271    0.4152961 
H     0.6886517   -6.4499273    0.8130577 
H     1.1209747   -8.1485614    0.4971246 
H     1.7047934   -8.9659374   -1.7385014 
H     2.9724030   -7.7324082   -1.9717316 
H     1.6695013   -7.9315313   -3.1847784 
H    -0.7158961   -7.1545622   -2.6562420 
H    -1.1334896   -6.5906130   -1.0136264 
H    -0.6978427   -8.3030841   -1.2823623 
H     0.8128194   -1.4035263    2.2994508 
H    -1.7761523   -2.8746634    5.9728552 
H    -1.6627997   -1.1644138    5.4706257 
H    -0.6579691   -1.7795303    6.8196253 
H     1.9054812   -1.3948589    4.1545233 
H     0.5303813   -0.2732379    4.3886507 
H     1.3974796   -0.9449184    5.7996193 
H     1.6409210   -3.8850722    4.6372730 
H     0.1597596   -4.4975050    5.4246869 
H     1.2710855   -3.4320687    6.3322214 
H    -1.9721369   -4.0864997    4.2248473 
H    -2.1351381   -3.4882459   -0.0450825 
H    -4.7927805   -5.7652968    0.6235858 
H    -3.2239458   -5.4059657   -0.1345928 
H    -4.3320812   -4.0690400    0.2884466 
H    -4.0666319   -4.5859046    4.0746411 
H    -5.2621159   -5.3272927    2.9829319 
H    -4.8469706   -3.5952059    2.8120692 
H    -3.5276969   -7.1300057    2.3572065 
H    -1.9426338   -6.6453497    1.6814621 
H    -2.3045454   -6.3573208    3.4061538 
