104
Energy =
C    -0.1887250   -0.5912943    3.7464159 
C     1.1519938   -0.9229185    3.4062156 
C     2.0999537    0.0731142    3.0667116 
H     1.4118968   -1.9822706    3.2845240 
Pd    0.2917362    0.1008142    1.6584129 
P     1.3785894    1.0469915   -0.2255064 
P    -1.6860361   -0.1514088    0.4529925 
H    -0.3633697    0.4060429    4.1787495 
H     1.9054025    1.0959102    3.4223646 
C    -3.1060237   -3.5661474    4.8135468 
C    -2.2324167   -3.8010361    3.7386673 
C    -1.2862617   -2.8369855    3.3800440 
C    -1.1975863   -1.6139683    4.0834432 
C    -2.0925575   -1.3844767    5.1514624 
C    -3.0302585   -2.3570024    5.5202542 
H    -3.8481494   -4.3210151    5.0924360 
H    -2.2997858   -4.7353762    3.1721720 
H    -0.6238605   -3.0135695    2.5245087 
H    -2.0395323   -0.4398356    5.7044968 
H    -3.7085168   -2.1676757    6.3587710 
C     6.2092020   -0.6115269    1.9819258 
C     5.7512128    0.6772989    2.2888891 
C     4.4113460    0.8834720    2.6372049 
C     3.4974695   -0.1935953    2.6833549 
C     3.9793902   -1.4906928    2.3844953 
C     5.3167338   -1.6957186    2.0366674 
H     7.2566390   -0.7751547    1.7085869 
H     6.4380058    1.5292089    2.2568204 
H     4.0618265    1.8936653    2.8747924 
H     3.3048893   -2.3523728    2.4233017 
H     5.6684455   -2.7070128    1.8077914 
C     3.8198221    2.5367254   -0.1578512 
C     4.6312827    3.5757513    0.3230115 
C     4.1530436    4.4516594    1.3077903 
C     2.8562632    4.2856051    1.8228528 
C     2.0461805    3.2453216    1.3508467 
C     2.5185228    2.3691912    0.3490795 
C     2.3793506   -0.1493616   -1.1877743 
C     2.8802588    0.1908509   -2.4626130 
C     3.6280514   -0.7437849   -3.1885465 
C     3.8787706   -2.0168996   -2.6515224 
C     3.3710630   -2.3610057   -1.3903000 
C     2.6170030   -1.4318938   -0.6620552 
C     0.3599647    1.8907406   -1.5245429 
C     0.4957908    3.2775986   -1.6914854 
C    -0.2619357    3.9393787   -2.6685273 
C    -1.1357766    3.2195076   -3.4731258 
C    -0.5382088    1.1277369   -2.3329621 
C    -1.2735273    1.8201740   -3.3336120 
C    -0.5562845   -0.3625742   -2.1697112 
C    -0.0101573   -1.1327220   -3.2292799 
O     0.3524522   -0.4419994   -4.3527554 
C    -0.4450021   -0.6252308   -5.5456475 
C    -1.9265875   -0.9363648   -5.2917350 
C    -2.6425912   -0.0432989   -4.2539665 
O    -2.1483392    1.3036025   -4.2430871 
C     0.1728512   -2.5160873   -3.1145782 
C    -0.1950877   -3.1605756   -1.9261085 
C    -0.7769095   -2.4324812   -0.8827742 
C    -0.9972520   -1.0409234   -1.0063060 
C    -3.0992344   -1.1533554    1.0659958 
C    -3.6661456   -0.7288035    2.2856706 
C    -4.8122227   -1.3533877    2.7880978 
C    -5.4019535   -2.4134790    2.0825526 
C    -4.8509257   -2.8329703    0.8638296 
C    -3.7072580   -2.2040630    0.3497401 
C    -2.5845237    1.3368931   -0.1431599 
C    -2.1925036    2.6208650    0.2738933 
C    -2.8961200    3.7479587   -0.1729025 
C    -3.9927431    3.5960135   -1.0331797 
C    -4.3990945    2.3134945   -1.4364367 
C    -3.7058218    1.1852649   -0.9853444 
H     4.2092289    1.8489074   -0.9137509 
H     5.6458338    3.6939424   -0.0711966 
H     4.7905449    5.2601926    1.6800810 
H     2.4795935    4.9633820    2.5958589 
H     1.0379436    3.1080976    1.7615477 
H     2.6545676    1.1695780   -2.8985708 
H     4.0039627   -0.4815454   -4.1825399 
H     4.4628887   -2.7455095   -3.2235819 
H     3.5536422   -3.3576969   -0.9754736 
H     2.1904264   -1.7006295    0.3090497 
H     1.1949051    3.8444037   -1.0731961 
H    -0.1621572    5.0214958   -2.7999415 
H    -1.7381641    3.7050994   -4.2458488 
H    -0.0039577   -1.4262353   -6.1699357 
H    -0.3410913    0.3293005   -6.0851226 
H    -2.0494290   -1.9865058   -4.9701437 
H    -2.4271811   -0.8477593   -6.2725609 
H    -3.7081918    0.0504951   -4.5211606 
H    -2.5904606   -0.4786041   -3.2457493 
H     0.6233021   -3.0663887   -3.9454616 
H    -0.0294667   -4.2367052   -1.8128104 
H    -1.0666740   -2.9478147    0.0382016 
H    -3.2085776    0.0980601    2.8391203 
H    -5.2395626   -1.0180152    3.7377673 
H    -6.2941830   -2.9076719    2.4804453 
H    -5.3167230   -3.6490424    0.3014810 
H    -3.3039280   -2.5276627   -0.6141754 
H    -1.3252596    2.7341213    0.9336771 
H    -2.5813200    4.7467420    0.1458443 
H    -4.5375270    4.4778508   -1.3856218 
H    -5.2614946    2.1930732   -2.1000554 
H    -4.0376083    0.1845102   -1.2821595 
