104
Energy =
C    -0.5070044    3.8086241    0.1829489 
C    -1.3378980    3.4038622   -0.8860489 
C    -2.5760619    2.7287899   -0.6530188 
H    -0.9582843    3.4787386   -1.9133550 
Pd   -0.8958339    1.5558582    0.2188161 
P     1.2820215    0.8021820    0.7218653 
P    -1.7645904   -0.6031950    0.2670289 
H    -0.9839577    3.9382444    1.1673187 
H    -3.1332114    2.9894601    0.2588428 
C     3.3006196    5.7790919   -0.1370634 
C     2.5299313    5.8875748    1.0295315 
C     1.2997506    5.2273344    1.1218511 
C     0.8072550    4.4565807    0.0446466 
C     1.5975474    4.3530659   -1.1237397 
C     2.8308905    5.0048288   -1.2111417 
H     4.2655924    6.2913127   -0.2093978 
H     2.8904084    6.4830384    1.8741711 
H     0.7051749    5.3107435    2.0376327 
H     1.2542664    3.7499291   -1.9687158 
H     3.4302802    4.9083275   -2.1223284 
C    -4.9255066    0.9733537   -3.8087607 
C    -3.5302070    1.0687057   -3.9440871 
C    -2.7620521    1.6427706   -2.9263956 
C    -3.3712182    2.1429349   -1.7509310 
C    -4.7745242    2.0473404   -1.6350649 
C    -5.5433578    1.4666281   -2.6510713 
H    -5.5257076    0.5160146   -4.6018851 
H    -3.0387305    0.6842055   -4.8442991 
H    -1.6717609    1.6755242   -3.0310533 
H    -5.2653868    2.4322278   -0.7353824 
H    -6.6293849    1.3948538   -2.5348249 
C    -1.9377190   -2.9007289    1.8857584 
C    -1.9364220   -3.5854462    3.1056083 
C    -1.6836740   -2.8947442    4.3023061 
C    -1.4278323   -1.5162929    4.2784998 
C    -1.4210026   -0.8265263    3.0578008 
C    -1.6701558   -1.5170984    1.8590631 
C    -3.5309982   -0.9107789   -0.1442957 
C    -4.4585807   -0.1669206    0.6148904 
C    -5.8303714   -0.4190703    0.5049538 
C    -6.2931745   -1.4030598   -0.3817312 
C    -5.3766438   -2.1438974   -1.1408917 
C    -3.9984907   -1.9120077   -1.0165259 
C    -0.6985876   -1.4737089   -0.9479102 
C    -1.0641692   -1.4462757   -2.3122967 
C    -0.2277840   -2.0165111   -3.2777711 
C     0.9813197   -2.6158189   -2.9047549 
C     0.5514166   -2.0148786   -0.5586476 
C     1.3671355   -2.6105510   -1.5564271 
C     1.0991685   -2.0149786    0.8330521 
C     1.3057702   -3.2722412    1.4467897 
O     0.8458164   -4.3671678    0.7692803 
C     1.7499083   -5.4566854    0.4790819 
C     2.0185101   -5.5164900   -1.0287758 
C     2.9629322   -4.4289508   -1.5517562 
O     2.5684115   -3.1096557   -1.1292528 
C     1.8901869   -3.3733891    2.7190177 
C     2.2949562   -2.2118979    3.3844053 
C     2.1121713   -0.9549092    2.7931436 
C     1.5166443   -0.8475028    1.5216256 
C     2.2255873    0.5969550   -0.8421899 
C     1.6438907    0.9821408   -2.0652767 
C     2.3287059    0.7771490   -3.2691444 
C     3.5992552    0.1818796   -3.2586197 
C     4.1772383   -0.2196882   -2.0443905 
C     3.4933092   -0.0211612   -0.8384383 
C     2.2105741    1.9585263    1.8010863 
C     1.5744036    2.3719803    2.9920567 
C     2.2408179    3.2073861    3.8966774 
C     3.5376913    3.6600270    3.6065397 
C     4.1566763    3.2838682    2.4064438 
C     3.5007866    2.4330575    1.5044276 
H    -2.1249197   -3.4436408    0.9533882 
H    -2.1305173   -4.6627579    3.1223574 
H    -1.6865438   -3.4335741    5.2555435 
H    -1.2288556   -0.9769243    5.2103047 
H    -1.2123149    0.2494850    3.0288101 
H    -4.0981147    0.6064608    1.3041272 
H    -6.5397634    0.1602793    1.1049927 
H    -7.3668292   -1.5954413   -0.4767319 
H    -5.7319379   -2.9196278   -1.8271911 
H    -3.2963776   -2.5252242   -1.5883777 
H    -2.0001784   -0.9719954   -2.6184668 
H    -0.5198433   -1.9914730   -4.3327488 
H     1.6386564   -3.0575861   -3.6587076 
H     1.2523342   -6.3829764    0.8135365 
H     2.6880345   -5.3363056    1.0525957 
H     1.0467225   -5.4598794   -1.5522723 
H     2.4605086   -6.4996983   -1.2776672 
H     3.9740981   -4.5482347   -1.1294938 
H     3.0487142   -4.4839510   -2.6540917 
H     2.0084303   -4.3574319    3.1825659 
H     2.7517391   -2.2831313    4.3767808 
H     2.4438563   -0.0581393    3.3222966 
H     0.6346360    1.4095868   -2.0651833 
H     1.8640982    1.0685631   -4.2167842 
H     4.1345331    0.0178051   -4.1997909 
H     5.1586330   -0.7047583   -2.0365055 
H     3.9289837   -0.3747735    0.1017693 
H     0.5550706    2.0313274    3.2105593 
H     1.7450858    3.5119134    4.8243240 
H     4.0583639    4.3183702    4.3095848 
H     5.1567314    3.6572266    2.1637051 
H     3.9902283    2.1536193    0.5672706 
