104
Energy =
C    -2.3745529    2.6163507   -1.4663169 
C    -1.2175899    3.4178543   -1.2319248 
C     0.0053666    3.1241167   -1.8784975 
H    -1.2497698    4.1875290   -0.4507430 
Pd   -0.7351767    1.3741710   -0.5908821 
P     1.4044751    0.6157866    0.0650046 
P    -1.7317397   -0.6522367    0.0239835 
H    -2.4485981    2.1181990   -2.4444961 
H    -0.0605278    2.5201429   -2.7958557 
C    -6.1563551    3.3166482    0.4645279 
C    -6.1049705    2.8425494   -0.8540687 
C    -4.8689750    2.6068684   -1.4698854 
C    -3.6604422    2.8579268   -0.7847943 
C    -3.7263358    3.3356674    0.5457389 
C    -4.9604395    3.5590864    1.1637321 
H    -7.1216056    3.4943359    0.9497004 
H    -7.0310591    2.6465962   -1.4042416 
H    -4.8357422    2.2250744   -2.4960102 
H    -2.8010739    3.4984640    1.1103550 
H    -4.9941912    3.9187216    2.1974373 
C     3.7076757    5.2823320   -1.5779383 
C     3.5378128    4.2797987   -2.5436512 
C     2.3313049    3.5747070   -2.6151417 
C     1.2700209    3.8557408   -1.7229278 
C     1.4645017    4.8565047   -0.7421341 
C     2.6671449    5.5642388   -0.6768097 
H     4.6473839    5.8414895   -1.5232684 
H     4.3435147    4.0511952   -3.2488092 
H     2.2015678    2.7994426   -3.3772132 
H     0.6701435    5.0879161   -0.0264589 
H     2.7976086    6.3388914    0.0852181 
C    -1.9471631   -2.4116751    2.2231119 
C    -1.9740041   -2.7159494    3.5881356 
C    -1.7347549   -1.7115619    4.5409146 
C    -1.4637572   -0.3997425    4.1270870 
C    -1.4274474   -0.0911701    2.7597302 
C    -1.6624667   -1.0960796    1.8048770 
C    -3.4760043   -1.1257292   -0.3349713 
C    -4.4743609   -0.2558267    0.1501305 
C    -5.8266943   -0.6065311    0.0478127 
C    -6.1971230   -1.8258756   -0.5372839 
C    -5.2076014   -2.7032094   -1.0052896 
C    -3.8516378   -2.3629671   -0.9003058 
C    -0.6734904   -1.8155703   -0.9392042 
C    -1.0163951   -2.0527683   -2.2903304 
C    -0.2215356   -2.8849379   -3.0859295 
C     0.9284494   -3.4858722   -2.5582240 
C     0.5258572   -2.3521449   -0.4150053 
C     1.3033142   -3.2115195   -1.2353573 
C     1.0725246   -2.0435291    0.9381713 
C     1.2236127   -3.1076839    1.8542163 
O     0.7061200   -4.3162836    1.4782788 
C     1.5556765   -5.4854354    1.4672255 
C     1.7793640   -5.9431434    0.0213976 
C     2.7684011   -5.0827716   -0.7720417 
O     2.4652459   -3.6779444   -0.6817816 
C     1.8082772   -2.8996401    3.1134037 
C     2.2581120   -1.6210714    3.4596304 
C     2.1273339   -0.5515693    2.5627662 
C     1.5381021   -0.7557539    1.3004152 
C     2.4157590   -0.0304769   -1.3246564 
C     3.6451312   -0.6764095   -1.0753928 
C     4.3843245   -1.2077522   -2.1393556 
C     3.8995594   -1.1118006   -3.4530883 
C     2.6666214   -0.4908434   -3.7031057 
C     1.9258661    0.0459211   -2.6423407 
C     2.3287912    1.9882639    0.8581039 
C     1.6523177    2.7188484    1.8602025 
C     2.3138011    3.7305559    2.5667766 
C     3.6484331    4.0395033    2.2607920 
C     4.3109468    3.3424782    1.2405743 
C     3.6588382    2.3167426    0.5406353 
H    -2.1260787   -3.1987196    1.4832117 
H    -2.1807140   -3.7416844    3.9101594 
H    -1.7617178   -1.9534078    5.6085626 
H    -1.2783427    0.3844858    4.8683445 
H    -1.2164995    0.9311979    2.4246814 
H    -4.1964681    0.6882693    0.6278619 
H    -6.5884409    0.0811478    0.4277625 
H    -7.2546680   -2.0975012   -0.6196269 
H    -5.4890066   -3.6650725   -1.4467558 
H    -3.0928229   -3.0714409   -1.2445628 
H    -1.9129242   -1.5921134   -2.7167937 
H    -0.4984892   -3.0655115   -4.1296129 
H     1.5539043   -4.1311960   -3.1811548 
H     1.0291093   -6.2697720    2.0373828 
H     2.5127964   -5.2651369    1.9759829 
H     0.7978156   -5.9607984   -0.4864478 
H     2.1580863   -6.9826445    0.0250027 
H     3.7840856   -5.1600954   -0.3508310 
H     2.8139890   -5.4128000   -1.8276383 
H     1.8887674   -3.7337106    3.8170528 
H     2.7110594   -1.4512167    4.4417465 
H     2.4957658    0.4374490    2.8460076 
H     4.0071855   -0.7884890   -0.0480843 
H     5.3354973   -1.7116092   -1.9396753 
H     4.4774684   -1.5345289   -4.2816787 
H     2.2732958   -0.4375252   -4.7235034 
H     0.9450074    0.4952159   -2.8274802 
H     0.6063790    2.4831908    2.0901749 
H     1.7859096    4.2823089    3.3515557 
H     4.1668200    4.8332739    2.8085135 
H     5.3435249    3.5981302    0.9819631 
H     4.1839847    1.7831218   -0.2564749 
