104
Energy =
C    -0.2724098    3.5005810   -1.5425019 
C    -1.5556124    3.3142673   -0.9410679 
C    -1.7325143    3.4027679    0.4581293 
H    -2.3865616    2.9545162   -1.5617492 
Pd   -0.1986882    1.8028209   -0.1031618 
P    -0.8733841    0.0972044    1.3803455 
P     1.5889264    0.5390374   -0.8962612 
H     0.4179022    4.2065943   -1.0577686 
H    -0.9785623    3.9729852    1.0235861 
C     0.4969915    2.7398215   -5.7124062 
C    -0.4982014    2.0112578   -5.0391500 
C    -0.7569140    2.2568551   -3.6871717 
C    -0.0315766    3.2427139   -2.9765281 
C     0.9589013    3.9708118   -3.6697109 
C     1.2223485    3.7209661   -5.0221055 
H     0.7046579    2.5418115   -6.7688828 
H    -1.0683405    1.2413674   -5.5701852 
H    -1.5102181    1.6547484   -3.1670161 
H     1.5285198    4.7403871   -3.1386428 
H     2.0012122    4.2922760   -5.5370117 
C    -5.4064244    2.8292468    2.6163395 
C    -4.3587902    3.5821255    3.1662268 
C    -3.1644225    3.7461320    2.4559945 
C    -2.9973456    3.1732538    1.1749750 
C    -4.0610867    2.4132916    0.6352000 
C    -5.2500030    2.2416858    1.3497825 
H    -6.3399549    2.6958370    3.1726478 
H    -4.4683763    4.0380314    4.1551818 
H    -2.3475908    4.3298234    2.8932849 
H    -3.9579434    1.9412326   -0.3455897 
H    -6.0599289    1.6455100    0.9168395 
C     3.0651993    0.4152836   -3.3741843 
C     3.9988518    0.9505125   -4.2740586 
C     4.5493955    2.2210412   -4.0544978 
C     4.1610710    2.9649365   -2.9301940 
C     3.2123861    2.4459395   -2.0421962 
C     2.6562397    1.1675523   -2.2563530 
C     2.8933973    0.0827116    0.3161062 
C     2.9868967    0.7661779    1.5410038 
C     4.0317822    0.4744126    2.4292763 
C     4.9838252   -0.4989053    2.0942147 
C     4.8939280   -1.1801314    0.8690195 
C     3.8569651   -0.8883015   -0.0235151 
C     0.7593999   -1.0025206   -1.4489207 
C     0.2503212   -1.0592960   -2.7657009 
C    -0.4692969   -2.1784485   -3.1980911 
C    -0.6991015   -3.2502508   -2.3271236 
C     0.4825928   -2.0491971   -0.5343684 
C    -0.2282281   -3.1833482   -1.0075581 
C     0.8818734   -2.0647064    0.9066464 
C     1.7847087   -3.0748650    1.3140349 
O     2.3009759   -3.8465443    0.3074759 
C     2.3796735   -5.2729696    0.4933279 
C     1.0019313   -5.9165715    0.6869799 
C    -0.0392459   -5.5175217   -0.3641266 
O    -0.4938052   -4.1706432   -0.1009005 
C     2.1547977   -3.2191407    2.6600028 
C     1.6112804   -2.3560806    3.6171064 
C     0.7065641   -1.3546846    3.2421065 
C     0.3363736   -1.2038238    1.8917280 
C    -1.5297777    0.7421515    2.9668247 
C    -0.7244213    1.6700636    3.6629756 
C    -1.1291615    2.1622235    4.9097697 
C    -2.3548633    1.7537132    5.4591312 
C    -3.1753573    0.8637658    4.7521618 
C    -2.7671829    0.3538656    3.5107587 
C    -2.1886271   -0.9104272    0.5842833 
C    -2.6336424   -2.1082477    1.1814562 
C    -3.5946499   -2.8959155    0.5354048 
C    -4.1069133   -2.5042842   -0.7111190 
C    -3.6511173   -1.3247250   -1.3190127 
C    -2.6940791   -0.5317588   -0.6742206 
H     2.6738742   -0.5923361   -3.5407874 
H     4.3060709    0.3616132   -5.1445931 
H     5.2843637    2.6291965   -4.7559303 
H     4.5902916    3.9559357   -2.7496614 
H     2.9050706    3.0306013   -1.1666011 
H     2.2333144    1.5200526    1.7982770 
H     4.0993775    1.0052667    3.3844453 
H     5.7990351   -0.7278338    2.7885270 
H     5.6342927   -1.9434938    0.6084738 
H     3.7837432   -1.4281545   -0.9733417 
H     0.4121360   -0.2223154   -3.4503053 
H    -0.8596740   -2.2120477   -4.2205240 
H    -1.2706983   -4.1257257   -2.6491413 
H     3.0516276   -5.5271754    1.3353906 
H     2.8542983   -5.6316635   -0.4345338 
H     0.5965896   -5.6596702    1.6825449 
H     1.1332356   -7.0148323    0.6674794 
H     0.3708862   -5.5846886   -1.3891816 
H    -0.9213072   -6.1777377   -0.2961671 
H     2.8693160   -3.9933143    2.9532566 
H     1.8952506   -2.4635225    4.6689616 
H     0.2806094   -0.6999730    4.0061899 
H     0.2254061    2.0009811    3.2258597 
H    -0.4920535    2.8708779    5.4491469 
H    -2.6762485    2.1420337    6.4310823 
H    -4.1444991    0.5648037    5.1642479 
H    -3.4194901   -0.3328140    2.9641732 
H    -2.2049146   -2.4398477    2.1327958 
H    -3.9316560   -3.8280404    1.0000614 
H    -4.8521342   -3.1275570   -1.2164513 
H    -4.0298593   -1.0296316   -2.3030289 
H    -2.3018237    0.3700102   -1.1579407 
