203
Energy =
C     3.5049403    1.2637447   -0.7811308 
C     3.8700576    0.1661901    0.0294332 
C     3.5450462   -1.1713016   -0.3576687 
H     4.2486442    0.3584900    1.0416409 
Pd    1.6811730    0.0228548   -0.1960640 
P     0.1012432   -1.6721610   -0.4416619 
P     0.0802151    1.6775380    0.1775986 
H     3.2519314    1.0492104   -1.8321037 
H     3.5447950   -1.3997714   -1.4315370 
C     4.2829564    5.4193729   -0.0140319 
C     3.3344357    5.0353105   -0.9748466 
C     3.0889694    3.6803626   -1.2158599 
C     3.7749363    2.6801143   -0.4883566 
C     4.7273001    3.0812071    0.4754075 
C     4.9806514    4.4375333    0.7055286 
H     4.4875152    6.4793045    0.1667115 
H     2.7831804    5.7955284   -1.5382411 
H     2.3410302    3.3864635   -1.9604200 
H     5.3022822    2.3276139    1.0224608 
H     5.7380757    4.7313086    1.4393959 
C     4.1010414   -4.5986882    2.1904268 
C     3.8864200   -3.3320123    2.7606532 
C     3.7016372   -2.2134386    1.9428935 
C     3.7281198   -2.3336027    0.5330330 
C     3.9325903   -3.6140623   -0.0256508 
C     4.1244042   -4.7322590    0.7945984 
H     4.2470717   -5.4737252    2.8321248 
H     3.8628154   -3.2178010    3.8496220 
H     3.5193202   -1.2352439    2.4019962 
H     3.9392347   -3.7295269   -1.1143805 
H     4.2940288   -5.7125190    0.3373051 
C     1.2040261    1.0050623   -4.9586940 
C     0.2182554    2.1829152   -5.1243336 
C     0.9902334    3.4093819   -5.6748139 
C    -0.8763393    1.7567923   -6.1345772 
C    -0.4321535    2.5713447   -3.7831059 
C     0.0064670    2.0342499   -2.5631448 
C    -1.4861850    3.5054096   -3.7357812 
C    -2.1356499    3.8773955   -2.5401661 
C    -3.2788475    4.9103749   -2.5741702 
C    -3.9658855    5.0515083   -1.1993167 
C    -4.3463000    4.4820870   -3.6121628 
C    -2.6868156    6.2859690   -2.9779136 
C    -1.6868913    3.2973316   -1.3404505 
C    -0.6003771    2.4053245   -1.3513422 
C     0.7612101    3.0229373    1.2190956 
C     0.3940882    4.3702058    1.0741767 
C     0.8732256    5.3381928    1.9739204 
C     0.4692507    6.8227052    1.8731632 
C     1.7372521    7.7084675    1.7826495 
C    -0.3404722    7.2040096    3.1397166 
C    -0.4027040    7.1011661    0.6303182 
C     1.7248277    4.9087871    3.0121456 
C     2.1302615    3.5691865    3.1709702 
C     1.6398902    2.6315632    2.2457965 
C     3.0191990    3.1461106    4.3574003 
C     3.6973822    1.7804923    4.1056312 
C     4.1294962    4.1922488    4.6178691 
C     2.1129080    3.0313745    5.6116953 
C    -1.3698660    1.0731765    1.1451980 
C    -1.5159083    1.4241475    2.5027588 
C    -2.5811912    0.9056189    3.2468002 
C    -3.5082505    0.0367193    2.6604755 
C    -2.2950592    0.1951774    0.5334543 
C    -3.3711808   -0.3119700    1.3069744 
C    -2.2589230   -0.1860838   -0.9123346 
C    -3.2954610    0.3247660   -1.7365033 
O    -4.1485674    1.2056886   -1.1325773 
C    -5.5202553    1.2819511   -1.5605802 
C    -6.3420839    0.0928740   -1.0614147 
C    -6.3804419   -0.0415785    0.4828202 
C    -5.5975480   -1.2396181    1.0217846 
O    -4.2063461   -1.1795714    0.6598099 
C    -3.3820522   -0.0369554   -3.0905824 
C    -2.4468032   -0.9294278   -3.6252948 
C    -1.4199722   -1.4516935   -2.8312963 
C    -1.3157388   -1.0803436   -1.4751393 
C     0.7939635   -3.1040016   -1.3579509 
C     0.6608175   -4.4231509   -0.9011673 
C     1.2319106   -5.4940968   -1.6147609 
C     0.9950551   -6.9407720   -1.1362381 
C    -0.4351911   -7.3511686   -1.5795768 
C     1.0898667   -7.0397812    0.4065087 
C     2.0151064   -7.9248572   -1.7491744 
C     1.9487281   -5.1975700   -2.7910691 
C     2.1091746   -3.8809235   -3.2721333 
C     1.5251096   -2.8393727   -2.5309762 
C     2.8685860   -3.5518070   -4.5730643 
C     1.8388535   -3.0721049   -5.6296353 
C     3.6218986   -4.7763458   -5.1332785 
C     3.8997659   -2.4241452   -4.3116078 
C    -0.6416199   -2.3451124    1.0808355 
C    -0.0884756   -1.9915819    2.3216473 
C    -0.6096664   -2.5317422    3.5101132 
C    -0.0428238   -2.1722649    4.8968892 
C    -1.1928733   -1.7456111    5.8430926 
C     0.9680240   -1.0090465    4.8139100 
C     0.6741254   -3.4193320    5.4757179 
C    -1.6694813   -3.4527450    3.3966567 
C    -2.2490486   -3.8206093    2.1648779 
C    -1.7286383   -3.2344566    0.9997211 
C    -3.3898213   -4.8555894    2.1252069 
C    -3.9817201   -5.0004536    0.7071910 
C    -4.5236528   -4.4272126    3.0897854 
C    -2.8250375   -6.2297852    2.5702101 
H     1.6129903    0.7166721   -5.9420821 
H     0.7013047    0.1219505   -4.5259789 
H     2.0598248    1.2698636   -4.3119147 
H     1.4672112    3.1644133   -6.6407311 
H     1.7794522    3.7237783   -4.9687490 
H     0.3158931    4.2684689   -5.8355087 
H    -1.4525987    0.9002917   -5.7445968 
H    -0.4151076    1.4605652   -7.0932969 
H    -1.5835742    2.5769545   -6.3454925 
H     0.8136998    1.2969940   -2.5307313 
H    -1.8263093    3.9549883   -4.6744421 
H    -4.8081145    5.7606499   -1.2741957 
H    -3.2730348    5.4421428   -0.4336921 
H    -4.3590931    4.0833091   -0.8445541 
H    -5.1774643    5.2091401   -3.6259387 
H    -3.9330793    4.4308725   -4.6338936 
H    -4.7580382    3.4897756   -3.3618758 
H    -1.9245722    6.6120846   -2.2485474 
H    -2.2106333    6.2439479   -3.9730789 
H    -3.4824700    7.0516454   -3.0129468 
H    -2.1865707    3.5160122   -0.3945228 
H    -0.2615264    4.6593569    0.2518238 
H     2.3169379    7.4658886    0.8762534 
H     1.4535248    8.7749120    1.7375542 
H     2.3981406    7.5732658    2.6559545 
H    -0.6487635    8.2638339    3.0929361 
H    -1.2487277    6.5818442    3.2254071 
H     0.2552447    7.0654157    4.0584745 
H     0.1235172    6.8361477   -0.3041487 
H    -1.3539706    6.5414400    0.6623169 
H    -0.6517136    8.1751386    0.5833573 
H     2.0893622    5.6530382    3.7264212 
H     1.9256979    1.5766158    2.3172536 
H     4.3034836    1.8024648    3.1831371 
H     4.3667606    1.5345635    4.9475895 
H     2.9637330    0.9613258    4.0217449 
H     4.7491456    4.3404544    3.7170853 
H     4.7842039    3.8497835    5.4380454 
H     3.7180927    5.1713768    4.9158609 
H     1.3227282    2.2757133    5.4555865 
H     2.7079235    2.7330818    6.4938186 
H     1.6240751    3.9957053    5.8349823 
H    -0.8074788    2.1109559    2.9728539 
H    -2.6945969    1.1860883    4.2989980 
H    -4.3280723   -0.3704245    3.2574065 
H    -5.5884212    1.3786769   -2.6594243 
H    -5.8862094    2.2249402   -1.1230171 
H    -5.9412269   -0.8312104   -1.5186594 
H    -7.3655742    0.2175769   -1.4592327 
H    -5.9914605    0.8779441    0.9591530 
H    -7.4235260   -0.1541298    0.8301874 
H    -5.9529610   -2.1793034    0.5685959 
H    -5.7196099   -1.3328009    2.1161847 
H    -4.1713349    0.3729985   -3.7254763 
H    -2.5230555   -1.2274583   -4.6760979 
H    -0.7151429   -2.1649842   -3.2647239 
H     0.1134076   -4.6164046    0.0232013 
H    -1.1921376   -6.6814711   -1.1337672 
H    -0.6570291   -8.3848821   -1.2583932 
H    -0.5382014   -7.2986254   -2.6775485 
H     2.0730340   -6.6989574    0.7708846 
H     0.3164812   -6.4365140    0.9115229 
H     0.9452470   -8.0878791    0.7217365 
H     1.8466647   -8.9370386   -1.3431138 
H     3.0524630   -7.6296987   -1.5099285 
H     1.9191706   -7.9941331   -2.8465577 
H     2.3983111   -6.0179952   -3.3514876 
H     1.6403568   -1.8010528   -2.8631065 
H     1.0948614   -3.8610254   -5.8364961 
H     1.2977601   -2.1742449   -5.2832987 
H     2.3475724   -2.8182519   -6.5769627 
H     4.1745929   -4.4881267   -6.0439545 
H     2.9315282   -5.5915963   -5.4109695 
H     4.3524831   -5.1714889   -4.4053907 
H     4.6227271   -2.7214887   -3.5313217 
H     3.4138454   -1.4848229   -3.9930099 
H     4.4640947   -2.2032681   -5.2345838 
H     0.7434251   -1.2826125    2.3382817 
H    -1.9248059   -2.5569713    5.9959649 
H    -1.7304460   -0.8735158    5.4333624 
H    -0.7881745   -1.4724984    6.8337918 
H     1.8538712   -1.2833565    4.2164031 
H     0.5107030   -0.1096317    4.3646394 
H     1.3202436   -0.7427682    5.8254283 
H     1.4889852   -3.7453502    4.8061242 
H    -0.0256081   -4.2648815    5.5944227 
H     1.1046595   -3.1916452    6.4675713 
H    -2.0657353   -3.9035023    4.3124169 
H    -2.1607978   -3.4556264    0.0212611 
H    -4.8259982   -5.7109601    0.7256147 
H    -3.2367109   -5.3910162   -0.0083988 
H    -4.3512486   -4.0333097    0.3248672 
H    -4.1771084   -4.3713390    4.1358050 
H    -5.3524039   -5.1562190    3.0521471 
H    -4.9201764   -3.4368216    2.8098671 
H    -3.6208052   -6.9959528    2.5551930 
H    -2.0169476   -6.5581842    1.8930879 
H    -2.4137716   -6.1854938    3.5937265 
