104
Energy =
C    -2.3763341    2.7923563   -0.4831927 
C    -1.1999393    3.5398425   -0.7831189 
C    -0.4204351    3.2646636   -1.9293132 
H    -0.7990622    4.2303203   -0.0298913 
Pd   -0.6241861    1.4073545   -0.6117575 
P     1.4574620    0.3516705   -0.7858083 
P    -1.6747549   -0.4847420    0.2873644 
H    -2.9569167    2.4014489   -1.3303329 
H    -0.8909109    2.6795678   -2.7360312 
C    -4.6189216    3.1505087    3.1760657 
C    -5.2317117    2.6897434    2.0023988 
C    -4.4929276    2.5793992    0.8179500 
C    -3.1253203    2.9296353    0.7813161 
C    -2.5211049    3.3956271    1.9734530 
C    -3.2589741    3.5047243    3.1552839 
H    -5.1947120    3.2344645    4.1034542 
H    -6.2905254    2.4109387    2.0064808 
H    -4.9772676    2.2140106   -0.0938773 
H    -1.4573780    3.6592609    1.9806683 
H    -2.7719851    3.8623859    4.0685823 
C     3.1389292    5.3593810   -3.1124617 
C     2.2718542    5.9382999   -2.1731317 
C     1.1143499    5.2621328   -1.7729623 
C     0.7966213    3.9955922   -2.3151553 
C     1.6707170    3.4334214   -3.2740590 
C     2.8338417    4.1037989   -3.6618626 
H     4.0468222    5.8877489   -3.4207930 
H     2.4954108    6.9254533   -1.7554572 
H     0.4357279    5.7379801   -1.0575876 
H     1.4419120    2.4483909   -3.6964856 
H     3.5084224    3.6450533   -4.3914907 
C    -0.9808915    0.3318254    2.8750885 
C    -0.8207475    0.1626679    4.2560268 
C    -1.1845183   -1.0502065    4.8606656 
C    -1.7049366   -2.0975093    4.0840310 
C    -1.8654460   -1.9358007    2.7026778 
C    -1.5079178   -0.7143183    2.0946615 
C    -3.4740755   -0.4869900   -0.0890978 
C    -4.4577209   -0.7288033    0.8870776 
C    -5.8166274   -0.7021021    0.5365938 
C    -6.2042066   -0.4338030   -0.7832177 
C    -5.2272445   -0.1800285   -1.7609161 
C    -3.8707233   -0.1977832   -1.4141317 
C    -1.0591903   -2.0755571   -0.4248833 
C    -1.8455500   -2.8205805   -1.3262996 
C    -1.3654853   -4.0242557   -1.8576973 
C    -0.1056272   -4.5071783   -1.4898023 
C     0.2248877   -2.5439490   -0.0502407 
C     0.6749977   -3.7775932   -0.5803504 
C     1.1076664   -1.8704327    0.9509738 
C     1.3445081   -2.5734746    2.1594439 
O     0.6756784   -3.7602687    2.3007641 
C     1.3931607   -4.9102035    2.7874400 
C     2.5258907   -5.3327585    1.8460029 
C     2.1066504   -5.4908217    0.3805042 
O     1.9289977   -4.1864807   -0.2171071 
C     2.1717765   -2.0426599    3.1601684 
C     2.7956110   -0.8080313    2.9516055 
C     2.6036300   -0.1079266    1.7546508 
C     1.7642027   -0.6309193    0.7497611 
C     1.6754265   -0.8203639   -2.1749636 
C     2.6730295   -1.8166960   -2.1427944 
C     2.8233103   -2.6889785   -3.2276284 
C     1.9820301   -2.5761299   -4.3456003 
C     0.9832647   -1.5911144   -4.3786274 
C     0.8283332   -0.7152370   -3.2954948 
C     2.8850024    1.5042653   -0.8739604 
C     4.0461299    1.2262902   -1.6210575 
C     5.1137319    2.1346264   -1.6212305 
C     5.0318616    3.3233294   -0.8819676 
C     3.8723851    3.6119782   -0.1464182 
C     2.8001805    2.7124442   -0.1499396 
H    -0.6830628    1.2670361    2.3904871 
H    -0.4042684    0.9757906    4.8592661 
H    -1.0551235   -1.1829065    5.9400299 
H    -1.9730737   -3.0498043    4.5527112 
H    -2.2357632   -2.7659413    2.0925033 
H    -4.1690886   -0.9215324    1.9241700 
H    -6.5744089   -0.8847775    1.3054417 
H    -7.2654961   -0.4141556   -1.0514004 
H    -5.5233633    0.0369795   -2.7924473 
H    -3.1100037    0.0118519   -2.1766782 
H    -2.8441822   -2.4746540   -1.6028700 
H    -1.9823017   -4.5896888   -2.5636864 
H     0.2844926   -5.4396051   -1.9088109 
H     0.6204798   -5.6938354    2.8504126 
H     1.7791870   -4.7344559    3.8098327 
H     2.9322191   -6.2948430    2.2109098 
H     3.3509960   -4.5987304    1.8893967 
H     2.9021725   -5.9998465   -0.1902996 
H     1.1759908   -6.0811087    0.2869241 
H     2.3186853   -2.5889276    4.0958927 
H     3.4439314   -0.3881630    3.7274882 
H     3.1213012    0.8418040    1.5979327 
H     3.3021992   -1.9358618   -1.2549362 
H     3.5895773   -3.4698897   -3.1908960 
H     2.0987026   -3.2638725   -5.1896997 
H     0.3184835   -1.5104546   -5.2448016 
H     0.0364123    0.0431824   -3.3053526 
H     4.1181529    0.3072063   -2.2098354 
H     6.0123973    1.9117594   -2.2057547 
H     5.8663740    4.0319885   -0.8880055 
H     3.7945730    4.5484347    0.4143274 
H     1.8836702    2.9481164    0.4047903 
