203
Energy =
C     2.4292262    1.5683842    2.3949924 
C     1.2338379    2.0695332    3.0037003 
C     0.2987390    1.1788658    3.5790842 
H     0.9558833    3.1223001    2.8702972 
Pd    0.6629856    0.6986790    1.3800134 
P    -1.5015865    0.3086120    0.6410663 
P     1.6849139   -0.4407827   -0.3816806 
H     2.8778828    0.6646290    2.8281597 
H     0.6711113    0.1739942    3.8359460 
C     5.1128089    3.8913297   -0.0466447 
C     3.8166650    4.3676180    0.2131025 
C     2.9382069    3.6248050    1.0070362 
C     3.3383711    2.3913811    1.5754429 
C     4.6473276    1.9276746    1.3114963 
C     5.5211990    2.6692927    0.5070126 
H     5.7980373    4.4712819   -0.6733461 
H     3.4883335    5.3224874   -0.2107477 
H     1.9240757    4.0019194    1.1756486 
H     4.9748927    0.9729706    1.7374496 
H     6.5301949    2.2912377    0.3147995 
C    -3.5142193    2.0119283    5.3731855 
C    -3.0381974    0.6966107    5.2672036 
C    -1.7948486    0.4511328    4.6784959 
C    -0.9996482    1.5099591    4.1809864 
C    -1.4976834    2.8285613    4.2870870 
C    -2.7418222    3.0737657    4.8760355 
H    -4.4822879    2.2101838    5.8440477 
H    -3.6353951   -0.1391889    5.6463839 
H    -1.4290874   -0.5753080    4.5945846 
H    -0.9070517    3.6709355    3.9166699 
H    -3.1130294    4.1006964    4.9486773 
C    -7.0606521    2.6063458    1.0612253 
C    -6.1981639    2.4088414    2.3363118 
C    -6.6225060    3.4463950    3.4036507 
C    -6.4592563    0.9947185    2.9029609 
C    -4.7211211    2.5952676    1.9361675 
C    -3.8984758    1.4899708    1.6456030 
C    -4.1748362    3.8827318    1.7743450 
C    -2.8408074    4.1080429    1.3777290 
C    -2.3019383    5.5440834    1.2200831 
C    -0.7579758    5.5807765    1.2103668 
C    -2.7901558    6.4453545    2.3804266 
C    -2.8235877    6.1054268   -0.1287526 
C    -2.0509726    2.9822664    1.0925826 
C    -2.5847571    1.6811573    1.1961090 
C    -2.2640508   -1.2726438    1.1402099 
C    -3.5066750   -1.6758528    0.6131070 
C    -4.1096715   -2.8615689    1.0573521 
C    -5.4902089   -3.3224949    0.5515570 
C    -5.3871922   -4.7647965   -0.0054677 
C    -6.0266662   -2.4039482   -0.5667588 
C    -6.4894433   -3.2984172    1.7373641 
C    -3.4188042   -3.6360212    2.0174232 
C    -2.1583832   -3.2818778    2.5300415 
C    -1.5910826   -2.0751051    2.0733947 
C    -1.3811949   -4.1758452    3.5192621 
C    -0.8781115   -3.3391562    4.7214996 
C    -2.2480866   -5.3298152    4.0655972 
C    -0.1614885   -4.7784430    2.7774729 
C    -1.6258303    0.3876641   -1.2007570 
C    -2.2059641    1.5038208   -1.8385792 
C    -2.2211101    1.5821681   -3.2354614 
C    -1.6682588    0.5615166   -4.0167633 
C    -1.0642810   -0.6555750   -1.9727374 
C    -1.1009732   -0.5588439   -3.3886110 
C    -0.4943747   -1.9160648   -1.4058955 
C    -1.2255805   -3.1078527   -1.6448818 
O    -2.4497455   -2.9369744   -2.2277306 
C    -2.9931325   -3.9688664   -3.0691039 
C    -2.2834526   -4.0414932   -4.4223408 
C    -2.3598402   -2.7305677   -5.2467860 
C    -1.0305741   -1.9810149   -5.3544634 
O    -0.5203111   -1.5942156   -4.0665224 
C    -0.7042347   -4.3575335   -1.2718622 
C     0.5551838   -4.4229151   -0.6666773 
C     1.2890161   -3.2595789   -0.4076283 
C     0.7680204   -2.0012962   -0.7709775 
C     1.8739120    0.4134981   -1.9812469 
C     2.3210437   -0.3008030   -3.1082125 
C     2.5069584    0.3590028   -4.3340077 
C     3.0579451   -0.3569891   -5.5822478 
C     3.1992031   -1.8767263   -5.3537318 
C     4.4543914    0.2307390   -5.9137364 
C     2.1082870   -0.1273561   -6.7843989 
C     2.1901384    1.7312173   -4.3908830 
C     1.7002840    2.4609626   -3.2902701 
C     1.5638569    1.7805238   -2.0672946 
C     1.3621888    3.9555699   -3.4483751 
C     0.4443618    4.1646830   -4.6786487 
C     2.6844713    4.7416665   -3.6439922 
C     0.6314771    4.5047901   -2.2059061 
C     3.3496155   -1.0046389    0.1439188 
C     3.4460249   -1.5856493    1.4197364 
C     4.6816603   -2.0246507    1.9295814 
C     4.7352255   -2.6671878    3.3295855 
C     3.9220445   -3.9874543    3.3017070 
C     4.1074617   -1.6980640    4.3647468 
C     6.1791110   -2.9834228    3.7707811 
C     5.8162232   -1.8551838    1.1138024 
C     5.7558532   -1.2644718   -0.1673254 
C     4.5033499   -0.8337155   -0.6404441 
C     7.0341411   -1.1436832   -1.0204330 
C     8.1766636   -0.5025074   -0.1936597 
C     6.8036964   -0.2843428   -2.2821237 
C     7.4582880   -2.5699064   -1.4605017 
H    -8.1332281    2.4832060    1.2969051 
H    -6.7881778    1.8676035    0.2865343 
H    -6.9140730    3.6149439    0.6364371 
H    -7.6669975    3.2635332    3.7104231 
H    -6.5717581    4.4808149    3.0233995 
H    -5.9819100    3.3787724    4.2992733 
H    -6.3047325    0.2099457    2.1422933 
H    -7.5059498    0.9168331    3.2438591 
H    -5.7984445    0.7768291    3.7599071 
H    -4.2808540    0.4743131    1.7596500 
H    -4.8112894    4.7479770    1.9766625 
H    -0.4085692    6.6243218    1.1306721 
H    -0.3348477    5.0276655    0.3569689 
H    -0.3406477    5.1575441    2.1416235 
H    -2.3663053    7.4591018    2.2737668 
H    -3.8879083    6.5496022    2.3966351 
H    -2.4693841    6.0410167    3.3568062 
H    -2.4652303    5.4886298   -0.9720789 
H    -3.9272012    6.1108792   -0.1541119 
H    -2.4695006    7.1409355   -0.2819243 
H    -1.0099150    3.0988123    0.7721380 
H    -3.9824806   -1.0578905   -0.1514973 
H    -5.0693209   -5.4834948    0.7690774 
H    -6.3688399   -5.0976663   -0.3867103 
H    -4.6593964   -4.8119813   -0.8327048 
H    -6.9981618   -2.7836249   -0.9272076 
H    -6.1875236   -1.3717663   -0.2074675 
H    -5.3328108   -2.3654417   -1.4246841 
H    -6.1684400   -3.9716928    2.5510931 
H    -6.5785057   -2.2800651    2.1543150 
H    -7.4903658   -3.6242420    1.4022021 
H    -3.8869260   -4.5598722    2.3655626 
H    -0.6047689   -1.7520164    2.4249825 
H    -1.7193501   -2.8644663    5.2560148 
H    -0.3407529   -3.9873812    5.4357354 
H    -0.1748172   -2.5479815    4.4068600 
H    -3.1459023   -4.9526176    4.5864523 
H    -1.6625283   -5.9238240    4.7882737 
H    -2.5728972   -6.0152118    3.2635005 
H     0.4875406   -3.9869230    2.3655354 
H     0.4408267   -5.3997206    3.4646046 
H    -0.4911168   -5.4076659    1.9337162 
H    -2.6569263    2.3042571   -1.2475098 
H    -2.6758719    2.4503620   -3.7236254 
H    -1.6774348    0.6407699   -5.1066337 
H    -4.0499818   -3.6820927   -3.1942771 
H    -2.9743526   -4.9482424   -2.5566087 
H    -2.7464264   -4.8725970   -4.9847532 
H    -1.2285404   -4.3294352   -4.2553733 
H    -2.6899176   -2.9493455   -6.2785758 
H    -3.1171118   -2.0485399   -4.8165589 
H    -1.1235984   -1.1058396   -6.0230019 
H    -0.2440915   -2.6322172   -5.7695044 
H    -1.2710331   -5.2737505   -1.4551565 
H     0.9705754   -5.3967364   -0.3880876 
H     2.2735626   -3.3357921    0.0599032 
H     2.5103570   -1.3727243   -3.0155183 
H     3.9279208   -2.1042884   -4.5553794 
H     3.5589550   -2.3618289   -6.2774936 
H     2.2324990   -2.3336245   -5.0784426 
H     4.3976392    1.3139913   -6.1187206 
H     5.1529709    0.0814513   -5.0722871 
H     4.8768025   -0.2633326   -6.8070141 
H     2.4902179   -0.6528955   -7.6775405 
H     2.0187041    0.9420335   -7.0407523 
H     1.0983578   -0.5096200   -6.5625283 
H     2.3269229    2.2562426   -5.3417771 
H     1.2041507    2.2921475   -1.1705344 
H     0.9338462    3.8568192   -5.6183100 
H    -0.4878004    3.5837384   -4.5721072 
H     0.1807479    5.2326417   -4.7771720 
H     2.4794583    5.8225905   -3.7476547 
H     3.2174737    4.4075215   -4.5512908 
H     3.3564713    4.5928941   -2.7812029 
H     1.2675580    4.4503304   -1.3070334 
H    -0.2996017    3.9441578   -2.0085492 
H     0.3656031    5.5647576   -2.3616198 
H     2.5363737   -1.6925349    2.0236510 
H     4.3490657   -4.6950999    2.5697242 
H     2.8680409   -3.8084346    3.0268606 
H     3.9353502   -4.4683702    4.2961892 
H     4.6405860   -0.7310146    4.3750649 
H     3.0419346   -1.5010100    4.1485392 
H     4.1626256   -2.1327425    5.3783268 
H     6.8021887   -2.0725285    3.8081303 
H     6.6632818   -3.7098132    3.0948955 
H     6.1702608   -3.4263754    4.7814457 
H     6.7871714   -2.1912217    1.4845191 
H     4.4166162   -0.3518060   -1.6153464 
H     9.0843500   -0.4060456   -0.8148633 
H     8.4426012   -1.1098433    0.6881294 
H     7.8941738    0.5041032    0.1599258 
H     6.0576836   -0.7399866   -2.9564184 
H     7.7469212   -0.1930123   -2.8475725 
H     6.4597643    0.7331948   -2.0253045 
H     8.3745881   -2.5252936   -2.0761485 
H     7.6638694   -3.2149440   -0.5884256 
H     6.6619038   -3.0479193   -2.0578155 
