203
Energy =
C     3.4767820    1.2559795   -0.8621208 
C     3.8605300    0.2402283    0.0429046 
C     3.5804801   -1.1333267   -0.2517461 
H     4.2127691    0.5211094    1.0430223 
Pd    1.6860261    0.0102847   -0.1919496 
P     0.1155169   -1.7012240   -0.4219631 
P     0.1067021    1.6666375    0.1835017 
H     3.2777878    0.9409970   -1.8991007 
H     3.6045857   -1.4393998   -1.3062153 
C     3.8588477    5.5190041   -0.5014826 
C     3.2616798    4.9408420   -1.6314515 
C     3.1475253    3.5512319   -1.7246865 
C     3.6244023    2.7076365   -0.6940766 
C     4.2153673    3.3062792    0.4419013 
C     4.3289769    4.6967228    0.5348764 
H     3.9602930    6.6064956   -0.4285930 
H     2.8867456    5.5733961   -2.4427965 
H     2.6784133    3.1047584   -2.6049857 
H     4.5981678    2.6835167    1.2553194 
H     4.7875169    5.1442124    1.4220291 
C     4.0008673   -4.3784701    2.5491798 
C     3.9405931   -3.0555150    3.0181418 
C     3.8052544   -1.9942067    2.1184277 
C     3.7379828   -2.2282544    0.7237516 
C     3.7972044   -3.5644304    0.2660614 
C     3.9289250   -4.6249888    1.1704278 
H     4.1052082   -5.2092275    3.2546379 
H     3.9966080   -2.8515397    4.0926573 
H     3.7378668   -0.9721355    2.5059917 
H     3.7346507   -3.7674902   -0.8088560 
H     3.9795235   -5.6512679    0.7951792 
C     1.5381014    2.4126797   -5.0835814 
C    -0.0063118    2.2959092   -5.1049938 
C    -0.5412031    3.1877233   -6.2451576 
C    -0.3968904    0.8256224   -5.4003911 
C    -0.5914407    2.6930323   -3.7329922 
C    -0.0896306    2.1034904   -2.5552996 
C    -1.6474546    3.6108075   -3.5941774 
C    -2.2333231    3.9345954   -2.3487493 
C    -3.3874036    4.9535109   -2.2874761 
C    -4.5299880    4.5036433   -3.2326157 
C    -2.8559852    6.3376990   -2.7419100 
C    -3.9585692    5.0873098   -0.8599470 
C    -1.7180118    3.3171036   -1.1998676 
C    -0.6334206    2.4241485   -1.3023936 
C     0.8487604    2.9896591    1.2139642 
C     0.5933160    4.3533642    1.0176040 
C     1.0910561    5.3100733    1.9236257 
C     0.7405231    6.8042670    1.7786036 
C     1.9362418    7.7001743    2.1825441 
C    -0.4593047    7.1005329    2.7173785 
C     0.3395922    7.1554510    0.3274749 
C     1.8549171    4.8496922    3.0127604 
C     2.1752600    3.4903027    3.2081251 
C     1.6614959    2.5649949    2.2855950 
C     3.0215833    3.0541137    4.4209717 
C     2.1229275    3.1213423    5.6834763 
C     3.5511502    1.6120664    4.2657241 
C     4.2412449    3.9914292    4.6004282 
C    -1.2948079    1.0556342    1.2212232 
C    -1.3896012    1.4102466    2.5831701 
C    -2.4054617    0.8697146    3.3787578 
C    -3.3398181   -0.0213473    2.8399531 
C    -2.2316133    0.1588405    0.6570179 
C    -3.2605678   -0.3677441    1.4815928 
C    -2.2683543   -0.2288010   -0.7861378 
C    -3.3664809    0.2476426   -1.5470173 
O    -4.1794130    1.1409263   -0.9072431 
C    -5.5747504    1.2137316   -1.2480791 
C    -6.3637169    0.0182523   -0.7106069 
C    -6.3091183   -0.1357508    0.8315797 
C    -5.4818278   -1.3308644    1.3084961 
O    -4.1136392   -1.2456971    0.8736402 
C    -3.5574819   -0.1736126   -2.8732435 
C    -2.6558227   -1.0784163   -3.4434308 
C    -1.5561303   -1.5503908   -2.7175066 
C    -1.3551839   -1.1271514   -1.3884856 
C     0.8230928   -3.0509288   -1.4436466 
C     1.5763731   -2.6557495   -2.5705898 
C     2.1788388   -3.6053717   -3.4043251 
C     3.0461719   -3.2048145   -4.6127353 
C     2.4533812   -3.8251612   -5.9033974 
C     4.4858894   -3.7355352   -4.3885152 
C     3.1134416   -1.6728927   -4.7958947 
C     1.9831169   -4.9724188   -3.0903130 
C     1.2275074   -5.3984463   -1.9860083 
C     0.6650214   -4.4086857   -1.1483261 
C     0.9566742   -6.8844074   -1.6754410 
C     1.6383645   -7.8272102   -2.6882051 
C    -0.5755591   -7.1246973   -1.7332908 
C     1.4756475   -7.2295533   -0.2571041 
C    -0.5859662   -2.4602115    1.0789372 
C    -0.0434189   -2.1363247    2.3330328 
C    -0.5711703   -2.7142997    3.5010147 
C    -0.0302746   -2.3808198    4.9044704 
C     0.9269172   -1.1710072    4.8701843 
C     0.7371662   -3.6158535    5.4431883 
C    -1.2032158   -2.0390693    5.8571298 
C    -1.6159089   -3.6481895    3.3528010 
C    -2.1825192   -3.9872750    2.1076001 
C    -1.6643999   -3.3562652    0.9651420 
C    -3.2987384   -5.0457469    2.0219312 
C    -4.4095872   -4.7415217    3.0572784 
C    -2.6737639   -6.4322658    2.3285495 
C    -3.9400694   -5.0878853    0.6181297 
H     1.9519610    2.1497404   -6.0729241 
H     1.9922568    1.7255992   -4.3481029 
H     1.8558421    3.4419630   -4.8419887 
H    -0.0777403    2.8868226   -7.2004893 
H    -0.3030998    4.2526084   -6.0748654 
H    -1.6343927    3.0900556   -6.3643907 
H    -0.0371891    0.1471636   -4.6079096 
H     0.0373988    0.4981564   -6.3623476 
H    -1.4930065    0.7175172   -5.4561951 
H     0.7221190    1.3686352   -2.6004072 
H    -2.0467209    4.0920642   -4.4902268 
H    -5.3705594    5.2183224   -3.1826226 
H    -4.9038653    3.5068651   -2.9441525 
H    -4.1985835    4.4516952   -4.2837962 
H    -3.6648873    7.0892839   -2.7076879 
H    -2.0384408    6.6789394   -2.0828675 
H    -2.4680305    6.3036172   -3.7747336 
H    -4.3237899    4.1174716   -0.4794475 
H    -3.2040791    5.4734514   -0.1514713 
H    -4.8042140    5.7964211   -0.8615495 
H    -2.1560636    3.5071536   -0.2175639 
H    -0.0038971    4.6663301    0.1594492 
H     2.8300124    7.4643593    1.5802283 
H     1.6807979    8.7619462    2.0217921 
H     2.2008615    7.5874455    3.2476610 
H    -0.7495497    8.1646265    2.6498166 
H    -1.3331429    6.4837193    2.4416589 
H    -0.2036967    6.8783108    3.7683356 
H     1.1317003    6.8731522   -0.3876210 
H    -0.5936209    6.6508962    0.0223919 
H     0.1659232    8.2418417    0.2413783 
H     2.2271176    5.5811182    3.7351253 
H     1.8721841    1.4952846    2.3925593 
H     1.2584362    2.4411722    5.5822379 
H     2.6934822    2.8255373    6.5822902 
H     1.7365962    4.1432186    5.8420103 
H     2.7353862    0.8733631    4.2119479 
H     4.1774010    1.3477725    5.1347802 
H     4.1751796    1.5086550    3.3597119 
H     3.9418225    5.0349882    4.7941821 
H     4.8497637    3.6583913    5.4592374 
H     4.8832944    3.9804881    3.7019414 
H    -0.6798267    2.1163647    3.0201918 
H    -2.4728777    1.1505840    4.4349234 
H    -4.1211348   -0.4447856    3.4758953 
H    -5.7103612    1.3203596   -2.3400944 
H    -5.9149817    2.1519152   -0.7802518 
H    -5.9934453   -0.9012297   -1.2017753 
H    -7.4096394    0.1475650   -1.0433430 
H    -5.9053035    0.7831624    1.2966653 
H    -7.3288983   -0.2665505    1.2369379 
H    -5.8489888   -2.2674704    0.8584276 
H    -5.5431137   -1.4448595    2.4061915 
H    -4.4039316    0.1958225   -3.4575737 
H    -2.8109804   -1.4190473   -4.4722525 
H    -0.8670519   -2.2611754   -3.1802336 
H     1.6860231   -1.5866310   -2.7778349 
H     2.4197619   -4.9267262   -5.8492441 
H     3.0702452   -3.5504869   -6.7774055 
H     1.4254319   -3.4605924   -6.0766096 
H     4.9216392   -3.3079044   -3.4677553 
H     4.5041594   -4.8348952   -4.2941218 
H     5.1342468   -3.4585258   -5.2387419 
H     3.7428154   -1.4306389   -5.6692359 
H     3.5629248   -1.1734742   -3.9180485 
H     2.1150984   -1.2350698   -4.9717203 
H     2.4406928   -5.7227203   -3.7396657 
H     0.0987805   -4.7035925   -0.2609177 
H     1.2737083   -7.6567729   -3.7164811 
H     2.7362727   -7.7074164   -2.6826123 
H     1.4163896   -8.8759119   -2.4260159 
H    -0.8032657   -8.1859125   -1.5283280 
H    -0.9761707   -6.8705356   -2.7301926 
H    -1.1102859   -6.5143553   -0.9850426 
H     1.0332768   -6.5782227    0.5164432 
H     2.5724304   -7.1208579   -0.2070370 
H     1.2241239   -8.2750892   -0.0056230 
H     0.7807071   -1.4193464    2.3773964 
H     0.4283257   -0.2775265    4.4539743 
H     1.8240938   -1.3819109    4.2652859 
H     1.2645004   -0.9290388    5.8929669 
H     0.0736480   -4.4947471    5.5228767 
H     1.5710952   -3.8793558    4.7698047 
H     1.1488183   -3.4073251    6.4473174 
H    -1.8934245   -2.8899311    5.9870218 
H    -1.7832539   -1.1838605    5.4695870 
H    -0.8145370   -1.7729705    6.8561202 
H    -2.0117287   -4.1303408    4.2522087 
H    -2.0964544   -3.5433611   -0.0206281 
H    -5.2179520   -5.4895616    2.9775617 
H    -4.8441712   -3.7425474    2.8838489 
H    -4.0314596   -4.7731153    4.0932045 
H    -1.8788812   -6.6725860    1.6003116 
H    -3.4432711   -7.2233292    2.2747750 
H    -2.2275554   -6.4560619    3.3380956 
H    -4.7732350   -5.8116132    0.6094870 
H    -4.3354094   -4.0991346    0.3278107 
H    -3.2188410   -5.4080219   -0.1539075 
