203
Energy =
C     2.4661826    1.3577428    2.4741982 
C     1.3210510    1.9919488    3.0470391 
C     0.2639363    1.2374048    3.6012860 
H     1.1741789    3.0699912    2.9001294 
Pd    0.6360065    0.6663016    1.4189305 
P    -1.5297011    0.3110269    0.6271928 
P     1.6239594   -0.4949710   -0.3455278 
H     2.8001884    0.4135608    2.9248101 
H     0.4710713    0.1859173    3.8582534 
C     5.5291538    3.4889757    0.3228566 
C     4.2185736    3.9954702    0.3581329 
C     3.2158560    3.3080147    1.0480663 
C     3.4992344    2.0968334    1.7225614 
C     4.8173611    1.5938499    1.6682727 
C     5.8221087    2.2867350    0.9826250 
H     6.3139281    4.0293067   -0.2165378 
H     3.9786940    4.9323762   -0.1555857 
H     2.1955584    3.7078353    1.0535772 
H     5.0529737    0.6506219    2.1710291 
H     6.8399565    1.8836629    0.9685737 
C    -3.2986945    2.8299509    5.4031844 
C    -3.2521046    1.4948409    4.9725967 
C    -2.0877197    0.9833098    4.3926844 
C    -0.9498447    1.8027078    4.2130721 
C    -1.0063598    3.1420508    4.6603924 
C    -2.1681349    3.6473637    5.2538676 
H    -4.2079837    3.2298310    5.8630498 
H    -4.1289942    0.8489546    5.0862352 
H    -2.0620737   -0.0560313    4.0491346 
H    -0.1222050    3.7822602    4.5801083 
H    -2.1870437    4.6806087    5.6153983 
C    -0.8492397    5.5286825    1.5808192 
C    -2.3870101    5.4954961    1.4311861 
C    -2.9986883    6.3723135    2.5498383 
C    -2.7683735    6.0856088    0.0473567 
C    -2.9351357    4.0561272    1.4927859 
C    -2.1209583    2.9457589    1.2099141 
C    -4.2953570    3.8095890    1.7626458 
C    -4.8587575    2.5171838    1.7645840 
C    -6.3584223    2.3324847    2.0707413 
C    -6.7659474    0.8438560    2.0850018 
C    -7.1844963    3.0589648    0.9776747 
C    -6.6879353    2.9394526    3.4580431 
C    -4.0183781    1.4333112    1.4570641 
C    -2.6613007    1.6479858    1.1676755 
C    -2.2626940   -1.2826295    1.1318801 
C    -3.4672935   -1.7561376    0.5747239 
C    -4.0483640   -2.9388385    1.0554428 
C    -5.3855479   -3.4779055    0.5121712 
C    -5.1967174   -4.9384819    0.0299825 
C    -5.9065840   -2.6349873   -0.6707887 
C    -6.4392108   -3.4391034    1.6494339 
C    -3.3789171   -3.6372647    2.0877811 
C    -2.1572601   -3.2098259    2.6343461 
C    -1.6086126   -2.0133931    2.1329322 
C    -1.3992037   -3.9879376    3.7276012 
C    -2.2059850   -5.1935827    4.2517523 
C    -0.0649659   -4.5045732    3.1308974 
C    -1.0984628   -3.0436493    4.9200204 
C    -1.6439269    0.3792997   -1.2143044 
C    -2.1975030    1.5125485   -1.8451815 
C    -2.2182805    1.5948726   -3.2413763 
C    -1.6897867    0.5648813   -4.0273343 
C    -1.1072170   -0.6746182   -1.9903344 
C    -1.1416754   -0.5686262   -3.4056636 
C    -0.5597711   -1.9428309   -1.4183262 
C    -1.3007564   -3.1290200   -1.6603090 
O    -2.5024692   -2.9572768   -2.2899281 
C    -3.0208082   -3.9941561   -3.1427328 
C    -2.2950756   -4.0487865   -4.4874111 
C    -2.3845680   -2.7344860   -5.3046174 
C    -1.0645170   -1.9677321   -5.3901637 
O    -0.5691789   -1.6043926   -4.0894184 
C    -0.8216076   -4.3764638   -1.2287695 
C     0.4087718   -4.4499528   -0.5676865 
C     1.1595071   -3.2953011   -0.3210665 
C     0.6799869   -2.0377558   -0.7395138 
C     1.7781100    0.4003032   -1.9267277 
C     1.5061875    1.7772083   -1.9588154 
C     1.6565710    2.5024386   -3.1534097 
C     1.3593000    4.0113422   -3.2454686 
C     2.6965122    4.7676115   -3.4549643 
C     0.6829118    4.5372842   -1.9618667 
C     0.4110545    4.2895513   -4.4385645 
C     2.1221460    1.8037759   -4.2847756 
C     2.3976203    0.4210265   -4.2832813 
C     2.1959499   -0.2817017   -3.0841501 
C     2.9361409   -0.2625367   -5.5549099 
C     3.0022816   -1.7963431   -5.3956872 
C     4.3666869    0.2707537   -5.8293335 
C     2.0232775    0.0674586   -6.7619682 
C     3.3107615   -1.0749292    0.0920841 
C     4.4066893   -0.9020389   -0.7602281 
C     5.6931896   -1.3448989   -0.3847543 
C     6.8569073   -1.2182235   -1.3882965 
C     8.2266438   -1.4634105   -0.7209883 
C     6.8738502    0.1891951   -2.0354930 
C     6.6393561   -2.2820957   -2.4977211 
C     5.8372637   -1.9421487    0.8779115 
C     4.7533467   -2.1177432    1.7712953 
C     3.4893275   -1.6754722    1.3576195 
C     4.9922942   -2.7598520    3.1518005 
C     6.0217342   -1.9068369    3.9372473 
C     5.5439756   -4.1955412    2.9572768 
C     3.6958346   -2.8446160    3.9849306 
H    -0.4968573    6.5743544    1.5867515 
H    -0.3396067    5.0174695    0.7468253 
H    -0.5333997    5.0550362    2.5262884 
H    -2.5571701    7.3836217    2.5187026 
H    -2.8008416    5.9361832    3.5435447 
H    -4.0897891    6.4894345    2.4374144 
H    -2.3275418    5.4859613   -0.7687504 
H    -2.3988105    7.1228540   -0.0466150 
H    -3.8638642    6.0956424   -0.0893070 
H    -1.0536214    3.0762521    1.0018525 
H    -4.9466562    4.6607261    1.9819210 
H    -7.8390766    0.7537758    2.3257829 
H    -6.2015703    0.2731902    2.8439730 
H    -6.6047192    0.3652202    1.1031603 
H    -8.2655133    2.9380449    1.1705193 
H    -6.9645914    4.1402892    0.9541904 
H    -6.9618503    2.6440427   -0.0211321 
H    -6.1242586    2.4237480    4.2537602 
H    -6.4393655    4.0134303    3.5067798 
H    -7.7660329    2.8332793    3.6730752 
H    -4.4115440    0.4157606    1.4485633 
H    -3.9278607   -1.1985856   -0.2436086 
H    -4.8889176   -5.6070148    0.8520609 
H    -6.1431558   -5.3303053   -0.3829280 
H    -4.4258649   -4.9910630   -0.7572261 
H    -6.8404222   -3.0758167   -1.0598853 
H    -6.1320782   -1.5982766   -0.3648840 
H    -5.1723390   -2.5978444   -1.4934375 
H    -6.1315284   -4.0589828    2.5094537 
H    -6.5873985   -2.4057097    2.0091113 
H    -7.4096611   -3.8216809    1.2858149 
H    -3.8328084   -4.5561591    2.4669121 
H    -0.6496337   -1.6403341    2.5099269 
H    -2.4074300   -5.9294054    3.4534265 
H    -1.6327531   -5.7098404    5.0409432 
H    -3.1707237   -4.8793234    4.6876472 
H    -0.2550597   -5.2018078    2.2973690 
H     0.5234920   -5.0326828    3.9026349 
H     0.5480230   -3.6758031    2.7363454 
H    -2.0306003   -2.6282048    5.3411241 
H    -0.5732136   -3.5946975    5.7199504 
H    -0.4532161   -2.1983757    4.6224571 
H    -2.6241263    2.3217837   -1.2475046 
H    -2.6568709    2.4732578   -3.7258621 
H    -1.6999697    0.6492038   -5.1167309 
H    -4.0808229   -3.7247554   -3.2787673 
H    -2.9923504   -4.9758805   -2.6361668 
H    -2.7385787   -4.8842921   -5.0589337 
H    -1.2376623   -4.3203167   -4.3093714 
H    -2.7006972   -2.9504134   -6.3413417 
H    -3.1556286   -2.0667066   -4.8766983 
H    -1.1620741   -1.0798893   -6.0406018 
H    -0.2684862   -2.6014768   -5.8137852 
H    -1.4023116   -5.2852348   -1.4051377 
H     0.7896230   -5.4231856   -0.2414698 
H     2.1262908   -3.3784640    0.1806924 
H     1.1644975    2.2620035   -1.0405108 
H     3.3915568    4.5673801   -2.6212308 
H     2.5194838    5.8568841   -3.5108567 
H     3.1914809    4.4551224   -4.3909438 
H    -0.2555411    3.9944894   -1.7503212 
H     1.3453322    4.4404585   -1.0850297 
H     0.4387044    5.6075585   -2.0755761 
H     0.1822286    5.3683826   -4.4982710 
H    -0.5368727    3.7378856   -4.3185447 
H     0.8601817    3.9915235   -5.4013009 
H     2.2735888    2.3625171   -5.2141061 
H     2.3546352   -1.3612671   -3.0352834 
H     3.7163562   -2.0951929   -4.6082509 
H     2.0145993   -2.2171298   -5.1402257 
H     3.3416928   -2.2560053   -6.3398231 
H     4.7845048   -0.1982544   -6.7381370 
H     5.0383034    0.0425756   -4.9829832 
H     4.3676067    1.3646642   -5.9781772 
H     1.9919409    1.1499365   -6.9730771 
H     0.9907593   -0.2722828   -6.5753134 
H     2.3957164   -0.4375425   -7.6707526 
H     4.2634683   -0.4137059   -1.7262975 
H     8.3183592   -2.4914236   -0.3292205 
H     8.4027490   -0.7572491    0.1101271 
H     9.0322026   -1.3225884   -1.4619558 
H     5.9473843    0.4020259   -2.5953737 
H     6.9940467    0.9774574   -1.2742812 
H     7.7144023    0.2623878   -2.7477073 
H     5.6803118   -2.1183881   -3.0202943 
H     6.6249491   -3.2999052   -2.0704058 
H     7.4509859   -2.2300384   -3.2455410 
H     6.8265308   -2.2848279    1.1912909 
H     2.6222396   -1.7835172    2.0163785 
H     6.2134010   -2.3552411    4.9282467 
H     5.6447249   -0.8801591    4.0928351 
H     6.9866019   -1.8385001    3.4064952 
H     4.8243062   -4.8185098    2.3974338 
H     5.7254967   -4.6717601    3.9372325 
H     6.4974072   -4.1941190    2.4017010 
H     3.9134837   -3.3028433    4.9648364 
H     3.2650388   -1.8447692    4.1764620 
H     2.9283068   -3.4647860    3.4901863 
