203
Energy =
C     2.3632017    1.4691380    2.3998908 
C     1.1679752    1.9499051    3.0264398 
C     0.2337552    1.0370103    3.5652738 
H     0.8940520    3.0084051    2.9380349 
Pd    0.5986614    0.6524873    1.3454223 
P    -1.5722484    0.3004879    0.5689067 
P     1.6476852   -0.4563673   -0.4135230 
H     2.8095891    0.5501615    2.8021428 
H     0.6069157    0.0223503    3.7777786 
C     5.0566130    3.8856986    0.0620772 
C     5.4692474    2.6512540    0.5841606 
C     4.5924528    1.8778151    1.3549305 
C     3.2764820    2.3222881    1.6164621 
C     2.8725544    3.5688667    1.0807603 
C     3.7531825    4.3428410    0.3198415 
H     5.7442395    4.4899485   -0.5385235 
H     6.4840281    2.2882285    0.3935606 
H     4.9237411    0.9139467    1.7564462 
H     1.8532583    3.9308246    1.2489172 
H     3.4210572    5.3069057   -0.0795792 
C    -3.5328484    1.8201433    5.4701582 
C    -3.0583203    0.5074391    5.3258306 
C    -1.8346701    0.2742302    4.6917808 
C    -1.0581666    1.3454758    4.1896856 
C    -1.5592411    2.6601252    4.3268818 
C    -2.7834202    2.8922965    4.9598257 
H    -4.4836584    2.0085627    5.9789136 
H    -3.6408004   -0.3356612    5.7117314 
H    -1.4677919   -0.7511514    4.5794569 
H    -0.9846301    3.5095076    3.9479568 
H    -3.1545976    3.9171087    5.0592563 
C    -2.6871624    6.1088327   -0.0703062 
C    -2.2215754    5.5350032    1.2939322 
C    -0.6772994    5.5303352    1.3338680 
C    -2.7222168    6.4511103    2.4365560 
C    -2.7989425    4.1118242    1.4307143 
C    -2.0594944    2.9741762    1.0675653 
C    -4.1175990    3.9109315    1.8854915 
C    -4.6984070    2.6363109    2.0231622 
C    -6.1610315    2.4843478    2.4871891 
C    -6.4141803    1.0980753    3.1204545 
C    -7.0677609    2.6401386    1.2371025 
C    -6.5387723    3.5665408    3.5267956 
C    -3.9267908    1.5168383    1.6519734 
C    -2.6270175    1.6852056    1.1517333 
C    -2.3376908   -1.2810069    1.0659010 
C    -3.5986894   -1.6981829    0.6126666 
C    -4.1645261   -2.9002799    1.0898871 
C    -5.5696290   -3.3277062    0.6171899 
C    -6.0602076   -4.6097543    1.3222798 
C    -5.5282434   -3.5925342   -0.9075751 
C    -6.5825453   -2.1945035    0.9172750 
C    -3.4050065   -3.6711746    1.9884602 
C    -2.1125869   -3.3005266    2.4216706 
C    -1.5974508   -2.0859371    1.9528567 
C    -1.3272813   -4.2036692    3.3910734 
C    -1.2428141   -5.6391159    2.8133854 
C     0.1117815   -3.6891880    3.6095843 
C    -2.0620140   -4.2327756    4.7558712 
C    -1.6681612    0.3914497   -1.2721884 
C    -2.2387335    1.5113684   -1.9110135 
C    -2.2191730    1.6046932   -3.3073487 
C    -1.6365013    0.5981162   -4.0854785 
C    -1.0787132   -0.6398120   -2.0414855 
C    -1.0754312   -0.5248443   -3.4554952 
C    -0.5291012   -1.9079380   -1.4688258 
C    -1.2709114   -3.0921126   -1.7156032 
O    -2.4597324   -2.9192713   -2.3671684 
C    -2.9434312   -3.9500033   -3.2478244 
C    -2.1565677   -4.0035669   -4.5579138 
C    -2.2302551   -2.6954212   -5.3870056 
C    -0.9148384   -1.9178895   -5.4381649 
O    -0.4604339   -1.5444123   -4.1259126 
C    -0.7981289   -4.3400725   -1.2771262 
C     0.4317188   -4.4162163   -0.6145073 
C     1.1902166   -3.2643801   -0.3767904 
C     0.7137523   -2.0061525   -0.7980822 
C     1.8476897    0.4172651   -2.0012575 
C     1.5352742    1.7852979   -2.0633034 
C     1.6943122    2.4943823   -3.2667302 
C     1.3574898    3.9919527   -3.3958344 
C     0.6109997    4.5131919   -2.1507867 
C     0.4563778    4.2278950   -4.6335099 
C     2.6818644    4.7827189   -3.5555065 
C     2.2100530    1.7915942   -4.3729371 
C     2.5330996    0.4200226   -4.3400325 
C     2.3222076   -0.2695242   -3.1343191 
C     3.1220226   -0.2604334   -5.5911732 
C     3.2876158   -1.7814937   -5.3905988 
C     4.5139709    0.3584952   -5.8830033 
C     2.1944251   -0.0217552   -6.8086997 
C     3.3141307   -1.0245729    0.1075595 
C     4.4684652   -0.8200624   -0.6682591 
C     5.7262848   -1.2419177   -0.2006993 
C     7.0042284   -1.0870188   -1.0487885 
C     7.4375577   -2.4974905   -1.5292085 
C     8.1430479   -0.4624755   -0.2046236 
C     6.7673734   -0.1939184   -2.2853403 
C     5.7922307   -1.8561683    1.0681745 
C     4.6581651   -2.0585298    1.8773357 
C     3.4167307   -1.6291415    1.3727887 
C     4.7233087   -2.7488729    3.2539530 
C     3.9405963   -1.9155501    4.3007775 
C     6.1739953   -2.9136264    3.7536341 
C     4.0769806   -4.1527918    3.1225698 
H    -2.3027904    7.1351670   -0.2122453 
H    -3.7891534    6.1412542   -0.1274474 
H    -2.3198836    5.4832903   -0.9029485 
H    -0.2965146    6.5637614    1.2668206 
H    -0.2423544    4.9673425    0.4931184 
H    -0.3024341    5.0944946    2.2772788 
H    -3.8131751    6.6086813    2.4002237 
H    -2.2470008    7.4441986    2.3568776 
H    -2.4687057    6.0276822    3.4249320 
H    -1.0295692    3.0723496    0.7066805 
H    -4.7132320    4.7854101    2.1556857 
H    -7.4507036    1.0429449    3.4955355 
H    -5.7281338    0.9118526    3.9636221 
H    -6.2882444    0.2827746    2.3906413 
H    -8.1322236    2.5418182    1.5170482 
H    -6.9235930    3.6278870    0.7650935 
H    -6.8340124    1.8654227    0.4853430 
H    -5.8582687    3.5382303    4.3951530 
H    -6.5125498    4.5844876    3.1020468 
H    -7.5671252    3.3932790    3.8883338 
H    -4.3363818    0.5096400    1.7504799 
H    -4.1363853   -1.0861456   -0.1188145 
H    -6.1164713   -4.4781412    2.4173308 
H    -7.0722353   -4.8646556    0.9634737 
H    -5.4055782   -5.4729080    1.1079926 
H    -6.5356500   -3.8524800   -1.2790794 
H    -5.1697842   -2.7096385   -1.4631439 
H    -4.8498203   -4.4330087   -1.1310507 
H    -6.6284731   -1.9893048    2.0005535 
H    -6.3167508   -1.2565999    0.3995969 
H    -7.5926226   -2.4868828    0.5796732 
H    -3.8263127   -4.6062868    2.3649680 
H    -0.6021031   -1.7427142    2.2480400 
H    -0.7423486   -5.6320850    1.8299693 
H    -0.6673642   -6.2910990    3.4942953 
H    -2.2419317   -6.0894432    2.6859062 
H     0.6597500   -3.6202335    2.6535236 
H     0.6630648   -4.3804370    4.2695786 
H     0.1273728   -2.6946644    4.0906826 
H    -3.0881491   -4.6260764    4.6524778 
H    -1.5210437   -4.8769899    5.4719444 
H    -2.1296868   -3.2180457    5.1871154 
H    -2.7079536    2.3024294   -1.3207372 
H    -2.6683689    2.4744509   -3.7978833 
H    -1.6169171    0.6910114   -5.1741386 
H    -3.9927997   -3.6729493   -3.4352776 
H    -2.9455471   -4.9331688   -2.7423099 
H    -2.5624486   -4.8485865   -5.1431874 
H    -1.1042500   -4.2587788   -4.3318559 
H    -2.5144898   -2.9199347   -6.4311350 
H    -3.0184746   -2.0306528   -4.9864284 
H    -1.0017737   -1.0334164   -6.0950120 
H    -0.1011761   -2.5467066   -5.8347915 
H    -1.3815274   -5.2471777   -1.4532472 
H     0.8100904   -5.3902354   -0.2871534 
H     2.1609058   -3.3506273    0.1171078 
H     1.1580976    2.2755241   -1.1617953 
H    -0.3229163    3.9495170   -1.9775044 
H     0.3480199    5.5767510   -2.2850394 
H     1.2363405    4.4370631   -1.2459870 
H     0.9582362    3.9384404   -5.5725249 
H    -0.4777762    3.6462596   -4.5513666 
H     0.1952959    5.2980203   -4.7135959 
H     2.4774357    5.8656214   -3.6373994 
H     3.2277260    4.4697274   -4.4626578 
H     3.3419209    4.6147758   -2.6869395 
H     2.3662142    2.3389161   -5.3082418 
H     2.5165312   -1.3420117   -3.0615910 
H     4.0019480   -2.0114847   -4.5800438 
H     2.3244494   -2.2632179   -5.1473430 
H     3.6776529   -2.2404878   -6.3153589 
H     4.9629651   -0.1115441   -6.7762638 
H     5.1983222    0.2066067   -5.0306870 
H     4.4419172    1.4440464   -6.0701012 
H     2.0887163    1.0515767   -7.0414995 
H     1.1878037   -0.4291513   -6.6199296 
H     2.6069306   -0.5179587   -7.7050048 
H     4.3791564   -0.3174691   -1.6322421 
H     6.6442352   -2.9634866   -2.1399756 
H     7.6468977   -3.1655212   -0.6754834 
H     8.3536475   -2.4296704   -2.1430711 
H     7.8540255    0.5310977    0.1791168 
H     8.4151023   -1.0936703    0.6582730 
H     9.0489851   -0.3411056   -0.8239675 
H     6.4133389    0.8125325   -2.0000873 
H     6.0261092   -0.6374195   -2.9725669 
H     7.7099056   -0.0779655   -2.8473936 
H     6.7669052   -2.1849728    1.4355532 
H     2.5090020   -1.7596837    1.9736985 
H     4.0056551   -2.3945712    5.2933590 
H     2.8687611   -1.8331487    4.0475175 
H     4.3556951   -0.8954037    4.3842441 
H     6.7652180   -3.5693112    3.0910541 
H     6.1714502   -3.3758557    4.7556944 
H     6.6893917   -1.9399767    3.8305644 
H     4.0885407   -4.6762094    4.0955457 
H     3.0282707   -4.0803893    2.7868502 
H     4.6279631   -4.7691703    2.3910318 
