203
Energy =
C     3.6419890    0.9099454    1.2914268 
C     3.7463749   -0.5118574    1.4093109 
C     3.7450937   -1.3499023    0.2709059 
H     3.6672134   -0.9695219    2.4042298 
Pd    1.8613557   -0.0575815    0.3830487 
P     0.2331747   -1.6466997   -0.1995706 
P     0.2861705    1.6450940    0.4728612 
H     4.1014830    1.3842449    0.4118255 
H     4.0515582   -0.8974470   -0.6855102 
C     2.9875615    3.5117731    4.6628958 
C     2.5038214    2.1928525    4.6905180 
C     2.7200553    1.3424808    3.6020583 
C     3.4352388    1.7841954    2.4641242 
C     3.9173566    3.1101637    2.4550513 
C     3.6915661    3.9672320    3.5389114 
H     2.8138352    4.1791326    5.5130270 
H     1.9459473    1.8283072    5.5600156 
H     2.3018220    0.3305742    3.6214412 
H     4.4708851    3.4708696    1.5831019 
H     4.0636099    4.9961225    3.5011854 
C     3.8157689   -5.6493492    0.2527316 
C     4.2597302   -4.9203427   -0.8602192 
C     4.2315476   -3.5217035   -0.8385894 
C     3.7611660   -2.8219723    0.2941166 
C     3.3085868   -3.5715096    1.4025310 
C     3.3354203   -4.9678529    1.3828679 
H     3.8386117   -6.7438155    0.2405120 
H     4.6222736   -5.4414443   -1.7518957 
H     4.5784219   -2.9566096   -1.7091723 
H     2.9146842   -3.0603973    2.2814270 
H     2.9729079   -5.5281350    2.2512048 
C    -3.8074775    4.8545852   -0.7741629 
C    -3.2770925    4.6080835   -2.2021592 
C    -4.4405791    4.0751889   -3.0757738 
C    -2.7666752    5.9546638   -2.7769552 
C    -2.1231965    3.5882128   -2.2161970 
C    -1.6010380    3.0343337   -1.0423636 
C    -1.5338166    3.2082626   -3.4450884 
C    -0.4705543    2.2965302   -3.5333389 
C     0.1815986    1.9028087   -4.8723212 
C     1.7045831    2.1858207   -4.7956537 
C    -0.3957194    2.6957607   -6.0631704 
C    -0.0651845    0.3946295   -5.1246911 
C     0.0175613    1.7402582   -2.3304324 
C    -0.5357115    2.1146269   -1.1024684 
C     0.8211313    3.3353846    0.9588325 
C     1.8701915    3.8434102    0.1644054 
C     2.2483942    5.1880309    0.2460847 
C     3.3363712    5.7944066   -0.6604751 
C     4.4295492    6.4712755    0.2045488 
C     2.6719581    6.8531170   -1.5797206 
C     4.0077578    4.7288375   -1.5528568 
C     1.5687925    6.0060971    1.1780329 
C     0.5273368    5.5290183    1.9885618 
C     0.1485593    4.1749495    1.8523299 
C    -0.2406486    6.4246624    2.9804917 
C     0.3380108    7.8531748    3.0457537 
C    -1.7223545    6.5138941    2.5301781 
C    -0.1661527    5.8021961    4.3980552 
C    -1.0061150    1.0396219    1.6234866 
C    -0.8979522    1.3263379    3.0017812 
C    -1.8521146    0.8261108    3.8926342 
C    -2.8913320    0.0029596    3.4426196 
C    -2.0247186    0.1771512    1.1514224 
C    -2.9671558   -0.3372746    2.0825433 
C    -2.2118241   -0.2121642   -0.2799912 
C    -3.3845191    0.2567736   -0.9257549 
O    -4.1389549    1.1350556   -0.1995534 
C    -5.5591225    1.2186530   -0.4095926 
C    -6.3033559    0.0410647    0.2216190 
C    -6.0859326   -0.0976428    1.7506039 
C    -5.2055054   -1.2839460    2.1468422 
O    -3.8927628   -1.1987188    1.5662627 
C    -3.6831259   -0.1276750   -2.2426349 
C    -2.8110287   -0.9835068   -2.9236006 
C    -1.6430119   -1.4521658   -2.3116264 
C    -1.3367374   -1.0701503   -0.9904665 
C     0.8621418   -2.9113177   -1.3748837 
C     0.5657421   -4.2770965   -1.2525381 
C     0.9704982   -5.1882791   -2.2465139 
C     0.5885531   -6.6804660   -2.1883790 
C     0.0425548   -7.0768966   -0.7999828 
C     1.8150605   -7.5726283   -2.5020290 
C    -0.5140195   -6.9333741   -3.2504539 
C     1.6954755   -4.6845382   -3.3419745 
C     2.0621155   -3.3295791   -3.4662023 
C     1.6252105   -2.4448695   -2.4645574 
C     2.9048756   -2.8738306   -4.6745181 
C     4.1473383   -3.7874911   -4.8325604 
C     3.3986541   -1.4204170   -4.5191928 
C     2.0297526   -2.9747791   -5.9508874 
C    -0.3510981   -2.5089184    1.3152850 
C    -1.4538929   -3.3828306    1.2297656 
C    -1.8757118   -4.1062792    2.3545109 
C    -3.0437036   -5.1095180    2.2991839 
C    -3.7823321   -5.0518086    0.9452409 
C    -4.0601997   -4.7972813    3.4262852 
C    -2.4791443   -6.5396888    2.5034023 
C    -1.1744642   -3.9119848    3.5648009 
C    -0.1027302   -3.0122455    3.6981793 
C     0.2965081   -2.3049932    2.5441697 
C     0.5994534   -2.7712090    5.0529011 
C     0.2228859   -1.3581360    5.5629836 
C     2.1361777   -2.8547105    4.8889622 
C     0.1781591   -3.8060671    6.1182704 
H    -4.6560788    5.5596094   -0.8079854 
H    -3.0329027    5.2957869   -0.1233782 
H    -4.1560682    3.9174077   -0.3073779 
H    -5.2848751    4.7874940   -3.0678177 
H    -4.8003182    3.1054477   -2.6909645 
H    -4.1331221    3.9302818   -4.1256235 
H    -1.9288456    6.3429247   -2.1711819 
H    -3.5770326    6.7056191   -2.7713273 
H    -2.4137762    5.8464510   -3.8172140 
H    -2.0055011    3.3124273   -0.0666376 
H    -1.9222737    3.6549427   -4.3634858 
H     2.1979191    1.8949969   -5.7401587 
H     2.1883603    1.6239202   -3.9784323 
H     1.8922832    3.2603367   -4.6232738 
H     0.1135039    2.3902742   -6.9936421 
H    -1.4749435    2.5049590   -6.1976856 
H    -0.2464698    3.7829211   -5.9401411 
H     0.3153472   -0.2267004   -4.2965096 
H    -1.1451011    0.1901317   -5.2210450 
H     0.4349964    0.0732407   -6.0555747 
H     0.8442789    1.0205545   -2.3423203 
H     2.3632548    3.1690992   -0.5424336 
H     4.9212650    5.7381435    0.8679986 
H     5.2041675    6.9200324   -0.4420708 
H     4.0142618    7.2751766    0.8358311 
H     3.4236956    7.3046417   -2.2517212 
H     1.8833208    6.3904892   -2.1991457 
H     2.2105904    7.6658295   -0.9924938 
H     4.4977418    3.9413050   -0.9516800 
H     3.2825245    4.2461434   -2.2319279 
H     4.7850642    5.2021926   -2.1769291 
H     1.8617135    7.0557349    1.2562175 
H    -0.6964778    3.7928346    2.4300473 
H     0.2676159    8.3692037    2.0720872 
H    -0.2298750    8.4506869    3.7796048 
H     1.3958931    7.8496894    3.3628278 
H    -1.7973588    6.9503736    1.5186764 
H    -2.2964667    7.1520892    3.2254919 
H    -2.2029895    5.5202029    2.5093574 
H     0.8813721    5.7298718    4.7368274 
H    -0.7231865    6.4269788    5.1188035 
H    -0.6008932    4.7877834    4.4249900 
H    -0.0716553    1.9372280    3.3739528 
H    -1.7808180    1.0709582    4.9570585 
H    -3.6213765   -0.3906648    4.1542727 
H    -5.7970179    1.3092968   -1.4849670 
H    -5.8455311    2.1679559    0.0719599 
H    -6.0019544   -0.8893800   -0.2954126 
H    -7.3768835    0.1843053    0.0015912 
H    -5.6433781    0.8284609    2.1629311 
H    -7.0564914   -0.2329350    2.2616898 
H    -5.6153865   -2.2247109    1.7449442 
H    -5.1479679   -1.3895462    3.2454741 
H    -4.5824912    0.2439784   -2.7397515 
H    -3.0445496   -1.2872128   -3.9492026 
H    -0.9753405   -2.1211835   -2.8595420 
H     0.0137155   -4.6269409   -0.3792110 
H     0.7717673   -6.8571300   -0.0001987 
H    -0.1744237   -8.1586417   -0.7786545 
H    -0.8976880   -6.5488210   -0.5646085 
H     2.2171726   -7.3867063   -3.5124505 
H     2.6247387   -7.3978855   -1.7743020 
H     1.5285471   -8.6377360   -2.4523554 
H    -0.8216180   -7.9945366   -3.2410911 
H    -0.1544340   -6.6901316   -4.2656536 
H    -1.4037473   -6.3117072   -3.0464343 
H     2.0054541   -5.3816552   -4.1264401 
H     1.8801819   -1.3811315   -2.5106551 
H     4.7899282   -3.7451610   -3.9358760 
H     3.8694661   -4.8412564   -5.0024549 
H     4.7487118   -3.4590513   -5.6983607 
H     4.0279397   -1.1449259   -5.3827065 
H     4.0084286   -1.2942720   -3.6060045 
H     2.5638976   -0.7031633   -4.4795160 
H     1.1328627   -2.3383770   -5.8619103 
H     1.6948488   -4.0121789   -6.1246574 
H     2.6018473   -2.6481978   -6.8378463 
H    -1.9826455   -3.4746443    0.2784997 
H    -3.1272850   -5.3506382    0.1078281 
H    -4.1626293   -4.0362812    0.7380321 
H    -4.6396854   -5.7466378    0.9571651 
H    -3.6102254   -4.9018978    4.4282860 
H    -4.4454174   -3.7686239    3.3324357 
H    -4.9144314   -5.4951539    3.3719908 
H    -1.9741550   -6.6369194    3.4802670 
H    -1.7470858   -6.7894923    1.7163852 
H    -3.2952536   -7.2834322    2.4668713 
H    -1.4943957   -4.4814553    4.4403227 
H     1.1090949   -1.5708108    2.5904276 
H     0.7398965   -1.1416275    6.5153929 
H    -0.8646588   -1.2827520    5.7303643 
H     0.5003665   -0.5816490    4.8307413 
H     2.4432636   -3.8397921    4.4975376 
H     2.6314234   -2.7029800    5.8637003 
H     2.5186804   -2.0751141    4.2074205 
H     0.7290953   -3.6170354    7.0555953 
H    -0.8988657   -3.7422213    6.3515267 
H     0.4041271   -4.8376308    5.7953358 
