104
Energy =
C    -2.3355424    2.7810757   -1.2791773 
C    -1.1522688    3.5289928   -1.0014193 
C     0.0535641    3.2496703   -1.6851631 
H    -1.1522458    4.2376535   -0.1638502 
Pd   -0.7256792    1.4292902   -0.5226417 
P     1.3958160    0.5648976    0.0550846 
P    -1.7730332   -0.6097429   -0.0504856 
H    -2.4377083    2.3633845   -2.2918807 
H    -0.0409337    2.7172252   -2.6434988 
C    -6.0668448    3.4352353    0.7631271 
C    -6.0485974    3.0698010   -0.5905085 
C    -4.8292326    2.8486283   -1.2438124 
C    -3.6041192    3.0061471   -0.5603484 
C    -3.6365703    3.3751056    0.8055595 
C    -4.8543350    3.5838095    1.4600357 
H    -7.0192784    3.6009847    1.2770249 
H    -6.9879407    2.9473613   -1.1394789 
H    -4.8221834    2.5513476   -2.2980192 
H    -2.6987264    3.4628263    1.3661840 
H    -4.8625061    3.8580382    2.5201092 
C     3.8247216    5.2655581   -1.2727362 
C     3.6149406    4.3399121   -2.3050998 
C     2.3860516    3.6796742   -2.4135282 
C     1.3417507    3.9295235   -1.4924542 
C     1.5759997    4.8520678   -0.4458137 
C     2.8012404    5.5152334   -0.3430661 
H     4.7820897    5.7900621   -1.1888599 
H     4.4071018    4.1368024   -3.0330344 
H     2.2255060    2.9646765   -3.2268637 
H     0.7949551    5.0580736    0.2920441 
H     2.9626560    6.2292548    0.4704709 
C    -2.0199164   -2.5176663    2.0182865 
C    -2.0482461   -2.9180183    3.3582857 
C    -1.7789024   -1.9908261    4.3789371 
C    -1.4761790   -0.6600988    4.0580757 
C    -1.4383012   -0.2555527    2.7159900 
C    -1.7033738   -1.1831676    1.6931820 
C    -3.5331371   -1.0077850   -0.4247507 
C    -4.5023475   -0.1482550    0.1326206 
C    -5.8649819   -0.4523409    0.0183323 
C    -6.2748498   -1.6146931   -0.6504955 
C    -5.3145763   -2.4830109   -1.1906959 
C    -3.9486037   -2.1895159   -1.0746941 
C    -0.7550227   -1.7292747   -1.1047298 
C    -1.1174563   -1.8621524   -2.4650907 
C    -0.3579698   -2.6609158   -3.3271083 
C     0.7795039   -3.3282754   -2.8549789 
C     0.4333361   -2.3356968   -0.6325785 
C     1.1758530   -3.1572726   -1.5209460 
C     0.9982108   -2.1406483    0.7339749 
C     1.1276997   -3.2749964    1.5661546 
O     0.5784916   -4.4303148    1.0772145 
C     1.3178664   -5.6611154    1.1922119 
C     2.6333703   -5.6303569    0.4057390 
C     2.4957054   -5.1400579   -1.0395088 
O     2.3306417   -3.7039107   -1.0372881 
C     1.7261594   -3.1770382    2.8319014 
C     2.2047797   -1.9372979    3.2696555 
C     2.0971288   -0.8001662    2.4576339 
C     1.4981526   -0.8961277    1.1869711 
C     2.3780072   -0.0093545   -1.3858069 
C     3.5870233   -0.7109871   -1.1940601 
C     4.3002623   -1.1904252   -2.2994833 
C     3.8097444   -0.9861032   -3.5985322 
C     2.5968380   -0.3084707   -3.7928359 
C     1.8818161    0.1762181   -2.6901498 
C     2.3654494    1.8486387    0.9375279 
C     1.7171137    2.5254245    1.9945158 
C     2.4127808    3.4644698    2.7656975 
C     3.7541036    3.7552335    2.4713849 
C     4.3894700    3.1131936    1.3990947 
C     3.7028479    2.1594283    0.6334922 
H    -2.2236579   -3.2446595    1.2252043 
H    -2.2808485   -3.9583900    3.6077996 
H    -1.8076609   -2.3076525    5.4267476 
H    -1.2675583    0.0642856    4.8521748 
H    -1.2032504    0.7827093    2.4535461 
H    -4.1938185    0.7497980    0.6758668 
H    -6.6036338    0.2267816    0.4550109 
H    -7.3403933   -1.8495805   -0.7423220 
H    -5.6268841   -3.4018399   -1.6981217 
H    -3.2132912   -2.8920899   -1.4770520 
H    -2.0034155   -1.3456946   -2.8476610 
H    -0.6515741   -2.7594353   -4.3771896 
H     1.3876469   -3.9470467   -3.5213492 
H     0.6311371   -6.4178561    0.7792169 
H     1.5019761   -5.9166651    2.2533711 
H     3.0540533   -6.6534433    0.4046061 
H     3.3686269   -4.9813766    0.9151839 
H     3.4153702   -5.3640810   -1.6077803 
H     1.6406726   -5.6177685   -1.5534276 
H     1.8039749   -4.0590298    3.4737162 
H     2.6686823   -1.8540973    4.2578346 
H     2.4932714    0.1548067    2.8112944 
H     3.9520935   -0.9075833   -0.1806023 
H     5.2345893   -1.7393997   -2.1444919 
H     4.3668114   -1.3689614   -4.4600897 
H     2.1983119   -0.1706058   -4.8032288 
H     0.9153891    0.6696445   -2.8340809 
H     0.6659709    2.3047733    2.2155858 
H     1.9064771    3.9740220    3.5921288 
H     4.2990939    4.4928096    3.0695248 
H     5.4277459    3.3559472    1.1511009 
H     4.2069522    1.6683919   -0.2035623 
