203
Energy =
C     3.4654002    1.2288107   -0.8771840 
C     3.8430780    0.2145304    0.0322894 
C     3.5605988   -1.1588974   -0.2587429 
H     4.1902511    0.4979820    1.0334160 
Pd    1.6683023   -0.0091835   -0.2147793 
P     0.1052273   -1.7285433   -0.4333139 
P     0.0911500    1.6505347    0.1597864 
H     3.2722619    0.9117533   -1.9146080 
H     3.5841461   -1.4689285   -1.3118911 
C     3.8502281    5.4921761   -0.5198642 
C     3.2569957    4.9132897   -1.6515812 
C     3.1425458    3.5236332   -1.7441301 
C     3.6145294    2.6806423   -0.7108505 
C     4.2018524    3.2800295    0.4265849 
C     4.3161320    4.6704629    0.5188541 
H     3.9520025    6.5796834   -0.4476699 
H     2.8854726    5.5453715   -2.4648751 
H     2.6769334    3.0766295   -2.6261133 
H     4.5814346    2.6578662    1.2418527 
H     4.7721175    5.1180957    1.4073058 
C     3.9089362   -4.3991377    2.5586069 
C     3.8779462   -3.0727008    3.0211235 
C     3.7696427   -2.0127318    2.1164231 
C     3.7047790   -2.2508737    0.7222746 
C     3.7447129   -3.5896810    0.2706203 
C     3.8420507   -4.6496985    1.1803979 
H     3.9876459   -5.2288791    3.2685320 
H     3.9337179   -2.8651630    4.0949239 
H     3.7209931   -0.9880589    2.4995023 
H     3.6910226   -3.7955454   -0.8040739 
H     3.8698820   -5.6790477    0.8093625 
C    -4.5446048    4.5679513   -3.1947226 
C    -3.3955273    4.9908495   -2.2449874 
C    -2.8553744    6.3790166   -2.6765809 
C    -3.9610637    5.1030981   -0.8133633 
C    -2.2489570    3.9649146   -2.3282714 
C    -1.7316115    3.3253775   -1.1923958 
C    -1.6709273    3.6578849   -3.5813395 
C    -0.6209529    2.7364736   -3.7399865 
C    -0.0519908    2.3533958   -5.1223632 
C     1.4944543    2.4378568   -5.1106834 
C    -0.5758959    3.2757556   -6.2432866 
C    -0.4763569    0.8968974   -5.4380829 
C    -0.1149209    2.1262569   -2.5745338 
C    -0.6511449    2.4295858   -1.3143098 
C     0.8375916    2.9628346    1.2020264 
C     1.6448102    2.5285508    2.2737890 
C     2.1653140    3.4471532    3.1999174 
C     3.0049799    2.9973974    4.4126562 
C     2.0814727    2.9929623    5.6591297 
C     4.1910126    3.9642283    4.6489922 
C     3.5832623    1.5787131    4.2174795 
C     1.8542676    4.8091627    3.0095768 
C     1.0940015    5.2787917    1.9217135 
C     0.5921932    4.3293940    1.0106663 
C     0.7528171    6.7758299    1.7840648 
C     1.9562435    7.6622859    2.1860875 
C     0.3471722    7.1355026    0.3365029 
C    -0.4406605    7.0761881    2.7296574 
C    -1.3174599    1.0407159    1.1881288 
C    -1.4313790    1.4050928    2.5458406 
C    -2.4608455    0.8726449    3.3295375 
C    -3.3882912   -0.0213573    2.7834338 
C    -2.2471133    0.1413913    0.6164908 
C    -3.2886991   -0.3784061    1.4291215 
C    -2.2690419   -0.2516065   -0.8257643 
C    -3.3556405    0.2307957   -1.5995670 
O    -4.1681337    1.1318855   -0.9707195 
C    -5.5582979    1.2151819   -1.3290455 
C    -6.3608131    0.0229013   -0.8049509 
C    -6.3248513   -0.1342851    0.7372789 
C    -5.5105272   -1.3342394    1.2245341 
O    -4.1344725   -1.2581549    0.8133454 
C    -3.5374912   -0.1939820   -2.9258916 
C    -2.6391728   -1.1102261   -3.4827616 
C    -1.5516252   -1.5895257   -2.7436703 
C    -1.3582572   -1.1612152   -1.4148346 
C     0.8333764   -3.0820131   -1.4350541 
C     1.5365544   -2.7013803   -2.5906526 
C     2.1612841   -3.6573185   -3.4124000 
C     2.9114743   -3.1921632   -4.6759659 
C     1.8888967   -2.5622391   -5.6569887 
C     3.6303224   -4.3563888   -5.3883368 
C     3.9704383   -2.1292851   -4.2837531 
C     2.0567993   -5.0078100   -3.0296150 
C     1.3678601   -5.4229835   -1.8690158 
C     0.7605544   -4.4374239   -1.0700162 
C     1.2672870   -6.9235556   -1.5305614 
C     2.6697693   -7.5806215   -1.5729829 
C     0.3530464   -7.5983023   -2.5872105 
C     0.6612423   -7.1575885   -0.1302293 
C    -0.5949018   -2.4735610    1.0765116 
C    -0.0619239   -2.1171056    2.3261516 
C    -0.5885851   -2.6750953    3.5045250 
C    -0.0548375   -2.3121829    4.9033613 
C    -1.2317530   -1.9449800    5.8414653 
C     0.9078347   -1.1082343    4.8469700 
C     0.7041726   -3.5378930    5.4744389 
C    -1.6264661   -3.6179003    3.3720492 
C    -2.1823724   -3.9920624    2.1321093 
C    -1.6614703   -3.3861683    0.9770151 
C    -3.3024443   -5.0488583    2.0772234 
C    -2.7175831   -6.4124632    2.5287825 
C    -3.8758705   -5.2004603    0.6524912 
C    -4.4557980   -4.6467332    3.0301165 
H    -5.3787927    5.2887587   -3.1288010 
H    -4.9265325    3.5693474   -2.9241031 
H    -4.2167254    4.5330965   -4.2477087 
H    -3.6586365    7.1357204   -2.6261049 
H    -2.4714018    6.3603202   -3.7112743 
H    -2.0329996    6.7027264   -2.0148832 
H    -4.3328059    4.1294262   -0.4491281 
H    -4.8011995    5.8185952   -0.7991312 
H    -3.2013741    5.4703076   -0.1004192 
H    -2.1636259    3.5016328   -0.2048317 
H    -2.0717800    4.1554418   -4.4677118 
H     1.8954603    2.1843805   -6.1077208 
H     1.9400076    1.7289614   -4.3904902 
H     1.8353942    3.4558258   -4.8531789 
H    -0.1220727    2.9844986   -7.2061923 
H    -1.6710640    3.1996453   -6.3596021 
H    -0.3183705    4.3328809   -6.0539732 
H    -0.1245663    0.1994492   -4.6587897 
H    -1.5751440    0.8128227   -5.4846561 
H    -0.0580078    0.5739378   -6.4084411 
H     0.6936469    1.3891104   -2.6351123 
H     1.8474769    1.4569428    2.3779246 
H     1.2417745    2.2891474    5.5191235 
H     2.6446541    2.6859519    6.5589046 
H     1.6595075    3.9965509    5.8420950 
H     4.8026868    3.6094834    5.4967021 
H     4.8403055    4.0185500    3.7572328 
H     3.8563086    4.9866017    4.8918405 
H     2.7927236    0.8169983    4.1263057 
H     4.2237357    1.5261947    3.3187349 
H     4.2039772    1.3043798    5.0873728 
H     2.2306737    5.5355523    3.7344600 
H    -0.0003381    4.6500741    0.1521791 
H     2.8452972    7.4239326    1.5778805 
H     1.7065924    8.7264194    2.0319074 
H     2.2258631    7.5425696    3.2491810 
H     1.1341696    6.8518757   -0.3836843 
H     0.1790235    8.2231756    0.2557899 
H    -0.5901726    6.6371891    0.0340650 
H    -0.1816818    6.8481945    3.7785433 
H    -0.7242294    8.1424126    2.6676429 
H    -1.3197948    6.4661960    2.4555554 
H    -0.7265231    2.1129965    2.9880763 
H    -2.5447128    1.1626979    4.3820137 
H    -4.1804080   -0.4382448    3.4103440 
H    -5.6792274    1.3267963   -2.4223135 
H    -5.8983867    2.1536474   -0.8617614 
H    -5.9900528   -0.8976031   -1.2938189 
H    -7.4020059    0.1589554   -1.1495755 
H    -5.9222485    0.7819621    1.2086695 
H    -7.3500621   -0.2604042    1.1302676 
H    -5.8751146   -2.2686390    0.7677366 
H    -5.5909572   -1.4476591    2.3210989 
H    -4.3744652    0.1809968   -3.5202500 
H    -2.7864508   -1.4537310   -4.5117689 
H    -0.8666850   -2.3099705   -3.1971679 
H     1.5970128   -1.6365102   -2.8472416 
H     1.1221593   -3.3003213   -5.9507970 
H     2.3991480   -2.2109520   -6.5717440 
H     1.3730776   -1.6977215   -5.2042502 
H     4.3722449   -4.8409729   -4.7293259 
H     2.9182494   -5.1249742   -5.7361610 
H     4.1662350   -3.9758204   -6.2748100 
H     4.5353410   -1.8045986   -5.1753396 
H     4.6884369   -2.5381220   -3.5511372 
H     3.5046897   -1.2292457   -3.8435533 
H     2.5295890   -5.7703621   -3.6525827 
H     0.2384021   -4.7134619   -0.1526705 
H     3.1303249   -7.5121131   -2.5730900 
H     3.3538064   -7.1026721   -0.8507186 
H     2.5931874   -8.6518136   -1.3165227 
H     0.2570135   -8.6788069   -2.3779207 
H     0.7630072   -7.4833269   -3.6058548 
H    -0.6565054   -7.1510525   -2.5736544 
H    -0.3757132   -6.7841542   -0.0661394 
H     1.2547845   -6.6633274    0.6591595 
H     0.6365780   -8.2389368    0.0884986 
H     0.7546064   -1.3908266    2.3582841 
H    -1.9269632   -2.7896980    5.9843083 
H    -1.8050701   -1.0952988    5.4327891 
H    -0.8478327   -1.6602923    6.8371812 
H     1.8060327   -1.3380719    4.2506304 
H     0.4159617   -0.2219594    4.4082539 
H     1.2425669   -0.8443361    5.8652192 
H     1.5390589   -3.8218504    4.8107682 
H     0.0360870   -4.4113566    5.5726740 
H     1.1131043   -3.3073188    6.4748310 
H    -2.0257681   -4.0803795    4.2804646 
H    -2.0811576   -3.6057920   -0.0074015 
H    -3.4980672   -7.1938775    2.5001142 
H    -2.3249455   -6.3611301    3.5592500 
H    -1.8911837   -6.7237440    1.8665301 
H    -4.2704220   -4.2413805    0.2735389 
H    -4.7001997   -5.9342985    0.6575430 
H    -3.1133429   -5.5643426   -0.0589087 
H    -5.2679500   -5.3935562    2.9812931 
H    -4.1219769   -4.5871078    4.0800600 
H    -4.8706571   -3.6647652    2.7489128 
