203
Energy =
C     3.4080514    1.3053810   -0.9856003 
C     3.8384890    0.3161510   -0.0719901 
C     3.5905071   -1.0680320   -0.3516645 
H     4.2013748    0.6170212    0.9186118 
Pd    1.6709513    0.0265277   -0.2573418 
P     0.1270046   -1.7078261   -0.4504969 
P     0.0686419    1.6634573    0.1583449 
H     3.2047966    0.9646190   -2.0136964 
H     3.6136526   -1.3793985   -1.4045289 
C     3.5849381    5.5850256   -0.6924707 
C     3.0252048    4.9618483   -1.8178038 
C     2.9850106    3.5668774   -1.8926351 
C     3.4951528    2.7641335   -0.8449164 
C     4.0493693    3.4077764    0.2851951 
C     4.0924107    4.8031167    0.3581112 
H     3.6291760    6.6772826   -0.6353961 
H     2.6225976    5.5628850   -2.6398127 
H     2.5466474    3.0840234   -2.7713787 
H     4.4553410    2.8162436    1.1104156 
H     4.5225836    5.2853371    1.2413672 
C     4.1655950   -4.2841631    2.4559786 
C     3.9968880   -2.9700864    2.9246310 
C     3.8126290   -1.9177511    2.0227681 
C     3.7966880   -2.1524885    0.6268195 
C     3.9590719   -3.4798499    0.1703869 
C     4.1474170   -4.5310038    1.0755174 
H     4.3107291   -5.1071694    3.1633201 
H     4.0078949   -2.7664801    4.0007118 
H     3.6635995   -0.9034035    2.4074088 
H     3.9331801   -3.6852303   -0.9047794 
H     4.2858309   -5.5488534    0.6973280 
C    -2.7273559    6.4244588   -2.7181055 
C    -3.3362272    5.0540085   -2.3216248 
C    -3.9459063    5.1711770   -0.9084490 
C    -4.4691900    4.6888851   -3.3132528 
C    -2.2221850    3.9905369   -2.3781107 
C    -1.7226753    3.3656439   -1.2219825 
C    -1.6481899    3.6366256   -3.6164406 
C    -0.6223642    2.6795014   -3.7477702 
C    -0.0590275    2.3231429   -5.1367906 
C     0.7040510    3.5527659   -5.6935346 
C    -1.2192278    1.9543868   -6.0953899 
C     0.9087662    1.1215099   -5.0704607 
C    -0.1310213    2.0953444   -2.5699259 
C    -0.6612587    2.4485761   -1.3176815 
C     0.7988769    2.9655836    1.2252901 
C     0.5207809    4.3314256    1.0706508 
C     1.0206899    5.2703738    1.9928855 
C     0.6530397    6.7648624    1.9053398 
C     1.8907361    7.6554746    2.1752213 
C    -0.4263400    7.0516813    2.9827734 
C     0.0831361    7.1326627    0.5175651 
C     1.8198408    4.7932463    3.0491581 
C     2.1674119    3.4355842    3.1991614 
C     1.6378173    2.5248145    2.2694809 
C     3.0670275    2.9880123    4.3685373 
C     2.2152210    2.9928404    5.6646071 
C     3.6311282    1.5679184    4.1490900 
C     4.2664125    3.9548738    4.5298598 
C    -1.3550547    1.0328436    1.1476683 
C    -1.4998112    1.3704212    2.5084859 
C    -2.5546972    0.8298592    3.2524126 
C    -3.4767809   -0.0403836    2.6602058 
C    -2.2717761    0.1487149    0.5321538 
C    -3.3436957   -0.3714503    1.3016918 
C    -2.2308682   -0.2211607   -0.9166220 
C    -3.2623610    0.3002796   -1.7391720 
O    -4.1093741    1.1818186   -1.1288699 
C    -5.4797571    1.2714596   -1.5555378 
C    -6.3061152    0.0796365   -1.0693230 
C    -6.3434797   -0.0712954    0.4737994 
C    -5.5735621   -1.2831827    1.0013176 
O    -4.1799776   -1.2321880    0.6462731 
C    -3.3482246   -0.0546933   -3.0954187 
C    -2.4133773   -0.9458871   -3.6339252 
C    -1.3881487   -1.4754990   -2.8417451 
C    -1.2887030   -1.1144161   -1.4829287 
C     0.8452281   -3.1277945   -1.3670770 
C     0.6967478   -4.4504146   -0.9355007 
C     1.3039308   -5.5141192   -1.6376473 
C     1.0412157   -6.9620748   -1.1777455 
C    -0.4482991   -7.2896773   -1.4674521 
C     1.3045327   -7.1042871    0.3424933 
C     1.9285434   -7.9798346   -1.9238958 
C     2.0822375   -5.1968504   -2.7622467 
C     2.2622607   -3.8690336   -3.2196824 
C     1.6282635   -2.8423096   -2.5073151 
C     3.1582464   -3.5924688   -4.4425637 
C     4.6031581   -4.0529510   -4.1177524 
C     3.1943217   -2.0933022   -4.8077691 
C     2.6219001   -4.3792686   -5.6654744 
C    -0.6232137   -2.4000078    1.0588555 
C    -1.7123077   -3.2846537    0.9544369 
C    -2.2418328   -3.8909952    2.1046496 
C    -3.3784289   -4.9287592    2.0367774 
C    -4.5132169   -4.5360492    3.0151587 
C    -2.8029719   -6.3117473    2.4397711 
C    -3.9728866   -5.0345308    0.6162924 
C    -1.6717295   -3.5442554    3.3467260 
C    -0.6124354   -2.6260043    3.4840130 
C    -0.0779386   -2.0684099    2.3090294 
C    -0.0568518   -2.2911599    4.8812424 
C    -1.2167657   -1.9277531    5.8414226 
C     0.9176641   -1.0959774    4.8310807 
C     0.6994793   -3.5330832    5.4201950 
H    -3.5005219    7.2129507   -2.6852071 
H    -2.3104103    6.3990274   -3.7400117 
H    -1.9144481    6.7068041   -2.0265535 
H    -4.7674511    5.9079635   -0.9163414 
H    -3.2023610    5.5142075   -0.1675210 
H    -4.3536048    4.2046019   -0.5641248 
H    -4.1107238    4.6546898   -4.3561545 
H    -5.2752686    5.4420863   -3.2636690 
H    -4.9006907    3.7035962   -3.0694165 
H    -2.1606710    3.5714907   -0.2429026 
H    -2.0264066    4.1216688   -4.5222666 
H     1.1181408    3.3309029   -6.6934158 
H     1.5406218    3.8308878   -5.0279130 
H     0.0394918    4.4292907   -5.7864306 
H    -0.8205949    1.6805553   -7.0883046 
H    -1.7918516    1.0978569   -5.7004671 
H    -1.9180253    2.7960480   -6.2387889 
H     1.8059066    1.3434047   -4.4649745 
H     0.4148556    0.2318406   -4.6418425 
H     1.2568767    0.8648504   -6.0856783 
H     0.6572121    1.3382382   -2.6023125 
H    -0.0917296    4.6593099    0.2296314 
H     2.6963867    7.4432718    1.4525489 
H     1.6150140    8.7204472    2.0825810 
H     2.2954466    7.5095598    3.1910927 
H    -0.7233467    8.1156399    2.9576395 
H    -1.3260116    6.4352258    2.8089543 
H    -0.0481056    6.8242520    3.9949190 
H     0.7888315    6.8726082   -0.2908587 
H    -0.8736809    6.6200539    0.3171098 
H    -0.1111324    8.2178750    0.4697059 
H     2.1993172    5.5120778    3.7808791 
H     1.8642408    1.4556161    2.3452278 
H     1.3681416    2.2895535    5.5764333 
H     2.8280303    2.6904165    6.5328457 
H     1.8053192    3.9978667    5.8661476 
H     2.8345652    0.8084277    4.1011118 
H     4.2956596    1.2948000    4.9863635 
H     4.2246139    1.5109366    3.2187118 
H     3.9466099    4.9798459    4.7816004 
H     4.9248095    3.6063808    5.3445703 
H     4.8642389    4.0009689    3.6020624 
H    -0.7991293    2.0626384    2.9821249 
H    -2.6645743    1.0953156    4.3089595 
H    -4.2905547   -0.4617035    3.2556621 
H    -5.5473632    1.3827532   -2.6532066 
H    -5.8403728    2.2103664   -1.1048111 
H    -5.9077995   -0.8405062   -1.5366554 
H    -7.3296167    0.2109508   -1.4649507 
H    -5.9436226    0.8387403    0.9593018 
H    -7.3873688   -0.1755088    0.8213669 
H    -5.9357695   -2.2142646    0.5359424 
H    -5.7009314   -1.3878171    2.0941728 
H    -4.1351409    0.3609153   -3.7296714 
H    -2.4878120   -1.2353307   -4.6873241 
H    -0.6789924   -2.1841332   -3.2769360 
H     0.1060623   -4.6602199   -0.0409058 
H    -1.1209515   -6.6048067   -0.9215215 
H    -0.6829037   -8.3221799   -1.1520131 
H    -0.6692353   -7.1969368   -2.5450658 
H     2.3541834   -6.8711147    0.5866084 
H     0.6627861   -6.4352633    0.9411982 
H     1.0969580   -8.1401826    0.6637158 
H     1.7271583   -8.9966362   -1.5452896 
H     3.0022583   -7.7696211   -1.7716125 
H     1.7253927   -7.9864952   -3.0090939 
H     2.5736479   -6.0039889   -3.3110795 
H     1.7442784   -1.7996788   -2.8185934 
H     5.0072377   -3.4972841   -3.2525949 
H     4.6435401   -5.1296518   -3.8792940 
H     5.2667969   -3.8727868   -4.9821310 
H     3.8410650   -1.9407092   -5.6886627 
H     3.6069092   -1.4789347   -3.9866824 
H     2.1905592   -1.7080570   -5.0580951 
H     1.5900035   -4.0700988   -5.9081815 
H     2.6172703   -5.4673518   -5.4823693 
H     3.2571128   -4.1904632   -6.5490621 
H    -2.1389633   -3.4861004   -0.0307574 
H    -4.9159743   -3.5398822    2.7655751 
H    -4.1663450   -4.5100288    4.0622035 
H    -5.3378183   -5.2682752    2.9561847 
H    -1.9915541   -6.6125498    1.7535892 
H    -2.3923154   -6.2946041    3.4643793 
H    -3.5924224   -7.0836787    2.4011147 
H    -3.2294577   -5.4031325   -0.1121136 
H    -4.3442888   -4.0573841    0.2625426 
H    -4.8158261   -5.7468928    0.6161646 
H    -2.0754040   -4.0098894    4.2515192 
H     0.7582665   -1.3651600    2.3446099 
H    -0.8164221   -1.6610656    6.8356055 
H    -1.9173865   -2.7683269    5.9820939 
H    -1.7885159   -1.0671392    5.4535178 
H     1.8086034   -1.3271086    4.2240745 
H     1.2644046   -0.8488774    5.8495025 
H     0.4315012   -0.1987360    4.4081716 
H     1.1191980   -3.3257277    6.4212230 
H     0.0266989   -4.4042349    5.5063164 
H     1.5271669   -3.8082486    4.7432592 
