104
Energy =
C    -2.3836092    2.7755507   -0.5367120 
C    -1.2063870    3.5302361   -0.8144936 
C    -0.4022350    3.2576193   -1.9441887 
H    -0.8254508    4.2251118   -0.0550144 
Pd   -0.6206481    1.4027775   -0.6266563 
P     1.4703897    0.3589187   -0.7588754 
P    -1.6763868   -0.4944517    0.2561893 
H    -2.9443649    2.3788377   -1.3944268 
H    -0.8530055    2.6678621   -2.7587285 
C    -4.7035326    3.1280907    3.0746747 
C    -5.2885962    2.6591652    1.8901480 
C    -4.5248459    2.5509229    0.7214461 
C    -3.1594014    2.9112363    0.7118152 
C    -2.5833780    3.3854954    1.9145619 
C    -3.3462070    3.4927326    3.0806290 
H    -5.2988429    3.2103746    3.9898136 
H    -6.3451487    2.3723585    1.8733763 
H    -4.9876834    2.1793955   -0.1990264 
H    -1.5220247    3.6572253    1.9428203 
H    -2.8809142    3.8572768    4.0024692 
C     3.1657491    5.3722347   -3.0641605 
C     2.2783296    5.9469580   -2.1413795 
C     1.1178036    5.2643184   -1.7614423 
C     0.8174100    3.9954278   -2.3080164 
C     1.7122081    3.4374065   -3.2501233 
C     2.8781881    4.1142625   -3.6175501 
H     4.0757943    5.9058166   -3.3567561 
H     2.4882986    6.9359690   -1.7210540 
H     0.4237694    5.7366437   -1.0586315 
H     1.4970231    2.4505184   -3.6753666 
H     3.5685815    3.6588078   -4.3343328 
C    -1.0399370    0.3346278    2.8547327 
C    -0.9063579    0.1706688    4.2391390 
C    -1.2736006   -1.0429795    4.8400930 
C    -1.7710052   -2.0962135    4.0564271 
C    -1.9049442   -1.9396817    2.6716440 
C    -1.5439005   -0.7174698    2.0671614 
C    -3.4677993   -0.5098892   -0.1560121 
C    -4.4690054   -0.7562707    0.8009528 
C    -5.8207762   -0.7403839    0.4232738 
C    -6.1837375   -0.4782521   -0.9047498 
C    -5.1892588   -0.2198971   -1.8634031 
C    -3.8398484   -0.2270115   -1.4895259 
C    -1.0368111   -2.0836154   -0.4386774 
C    -1.8008424   -2.8364736   -1.3526995 
C    -1.3029676   -4.0387320   -1.8707596 
C    -0.0474037   -4.5124014   -1.4770317 
C     0.2427252   -2.5425905   -0.0377791 
C     0.7108737   -3.7749477   -0.5551391 
C     1.1016871   -1.8602599    0.9780378 
C     1.3195581   -2.5577966    2.1932688 
O     0.6559778   -3.7485815    2.3256005 
C     1.3717274   -4.8921419    2.8296528 
C     2.5250734   -5.3099361    1.9114455 
C     2.1350303   -5.4755668    0.4387571 
O     1.9603164   -4.1743905   -0.1665908 
C     2.1233853   -2.0181206    3.2082463 
C     2.7430680   -0.7800767    3.0077035 
C     2.5699786   -0.0852055    1.8048430 
C     1.7538750   -0.6170885    0.7855006 
C     1.7207794   -0.8156961   -2.1403427 
C     2.7234861   -1.8059890   -2.0870275 
C     2.8986419   -2.6803906   -3.1663999 
C     2.0771823   -2.5757119   -4.2997892 
C     1.0735698   -1.5966012   -4.3539986 
C     0.8938410   -0.7185344   -3.2764922 
C     2.8929809    1.5193475   -0.8236602 
C     4.0692663    1.2460057   -1.5484102 
C     5.1315228    2.1604505   -1.5313625 
C     5.0293704    3.3504790   -0.7967678 
C     3.8550721    3.6342155   -0.0831479 
C     2.7881065    2.7286870   -0.1042587 
H    -0.7386788    1.2703928    2.3733398 
H    -0.5079162    0.9885292    4.8481364 
H    -1.1651330   -1.1714916    5.9222699 
H    -2.0421226   -3.0488771    4.5226306 
H    -2.2571260   -2.7741967    2.0567356 
H    -4.1998124   -0.9439658    1.8441760 
H    -6.5924785   -0.9267016    1.1772609 
H    -7.2395629   -0.4669120   -1.1941508 
H    -5.4662870   -0.0074555   -2.9011676 
H    -3.0655102   -0.0139692   -2.2372790 
H    -2.7960361   -2.4977611   -1.6497427 
H    -1.9023259   -4.6102614   -2.5868039 
H     0.3566191   -5.4435796   -1.8854938 
H     0.6032360   -5.6807510    2.8803740 
H     1.7368564   -4.7105592    3.8586847 
H     2.9309629   -6.2679690    2.2873355 
H     3.3442298   -4.5701631    1.9681725 
H     2.9446018   -5.9812094   -0.1150487 
H     1.2102343   -6.0723078    0.3293657 
H     2.2553315   -2.5601870    4.1486344 
H     3.3736748   -0.3535712    3.7944889 
H     3.0847497    0.8671752    1.6548637 
H     3.3370849   -1.9188961   -1.1875181 
H     3.6688591   -3.4564884   -3.1135996 
H     2.2130603   -3.2653115   -5.1394918 
H     0.4243143   -1.5223031   -5.2324305 
H     0.0979930    0.0353748   -3.3030995 
H     4.1575128    0.3256040   -2.1328793 
H     6.0420580    1.9412708   -2.0986584 
H     5.8596429    4.0640874   -0.7896799 
H     3.7619060    4.5713581    0.4740824 
H     1.8602788    2.9604119    0.4330305 
