203
Energy =
C     3.3057058    1.4238367   -1.1118699 
C     3.8001876    0.3521717   -0.3333191 
C     3.5387037   -0.9991952   -0.7244046 
H     4.2447605    0.5548540    0.6490125 
Pd    1.6221138    0.0690998   -0.3849285 
P     0.0930252   -1.6749780   -0.5059873 
P     0.0205630    1.6886642    0.1474031 
H     3.0340596    1.1868414   -2.1525738 
H     3.4613377   -1.1990782   -1.8021568 
C     3.6781453    5.6462943   -0.4358796 
C     3.0287160    5.1561901   -1.5790057 
C     2.9109640    3.7773066   -1.7767852 
C     3.4373605    2.8598201   -0.8368869 
C     4.0707905    3.3706357    0.3188311 
C     4.1881917    4.7490351    0.5159982 
H     3.7921395    6.7247592   -0.2876533 
H     2.6186647    5.8496361   -2.3204976 
H     2.4027179    3.3977809   -2.6693019 
H     4.4836097    2.6863566    1.0652039 
H     4.6837487    5.1272364    1.4155326 
C     4.5971470   -4.4530262    1.6223966 
C     4.5005914   -4.5365711    0.2259395 
C     4.1492542   -3.4084249   -0.5238949 
C     3.8882619   -2.1704700    0.1028450 
C     3.9746113   -2.1042413    1.5134503 
C     4.3316154   -3.2303380    2.2618346 
H     4.8732247   -5.3335087    2.2117825 
H     4.7002503   -5.4833782   -0.2867027 
H     4.0740654   -3.4830807   -1.6121539 
H     3.7460194   -1.1653710    2.0295634 
H     4.3979544   -3.1581589    3.3521096 
C    -1.2797979    2.0063974   -6.0592592 
C    -0.0857091    2.3628180   -5.1377391 
C     0.8462964    1.1341968   -5.0602782 
C     0.7037710    3.5514116   -5.7437671 
C    -0.6118062    2.7686455   -3.7481497 
C    -0.1613111    2.1566702   -2.5721906 
C    -1.5664645    3.8026737   -3.6208638 
C    -2.1089490    4.1966576   -2.3849045 
C    -3.1486511    5.3284321   -2.2565263 
C    -4.4780956    4.7382147   -1.7252568 
C    -3.4273184    6.0236223   -3.6055626 
C    -2.6197774    6.3937592   -1.2623905 
C    -1.6675447    3.5213912   -1.2269362 
C    -0.6698726    2.5394939   -1.3157013 
C     0.7825186    2.9089014    1.2885144 
C     0.4642914    4.2712177    1.3028643 
C     0.9806110    5.1199865    2.3061816 
C     0.5102081    6.5868419    2.3742341 
C    -0.9917207    6.5834890    2.7671267 
C     0.6786992    7.2767631    0.9987105 
C     1.2924957    7.4033579    3.4240382 
C     1.8491393    4.5584810    3.2568354 
C     2.2201583    3.1949275    3.2487085 
C     1.6663160    2.3772758    2.2537932 
C     3.1814414    2.6554982    4.3263999 
C     2.4704051    2.7274110    5.7029557 
C     3.5906676    1.1920052    4.0583273 
C     4.4705878    3.5148000    4.3644168 
C    -1.4363621    1.0817672    1.1016926 
C    -1.6312844    1.4692620    2.4427990 
C    -2.7241451    0.9708288    3.1607241 
C    -3.6248770    0.0796884    2.5676282 
C    -2.3389452    0.1878341    0.4806396 
C    -3.4358800   -0.3084555    1.2312650 
C    -2.2826506   -0.1992588   -0.9630229 
C    -3.3191252    0.3123745   -1.7883775 
O    -4.1662995    1.1979852   -1.1852600 
C    -5.5347875    1.2858291   -1.6193053 
C    -6.3609934    0.0799953   -1.1689121 
C    -6.4339669   -0.0875809    0.3709898 
C    -5.6410065   -1.2789798    0.9095884 
O    -4.2439225   -1.1964622    0.5772289 
C    -3.4193435   -0.0657762   -3.1369757 
C    -2.4961330   -0.9740495   -3.6657520 
C    -1.4677418   -1.4935678   -2.8720866 
C    -1.3475315   -1.1050625   -1.5216187 
C     0.7717140   -3.1359453   -1.3870659 
C     1.4359901   -2.9246917   -2.6156831 
C     1.9889369   -3.9984906   -3.3271967 
C     2.6937541   -3.8128317   -4.6856390 
C     4.1404084   -4.3636480   -4.6032763 
C     2.7627180   -2.3289585   -5.1041869 
C     1.9030068   -4.5921960   -5.7681924 
C     1.8853899   -5.2897540   -2.7573945 
C     1.2580003   -5.5279818   -1.5242733 
C     0.6978854   -4.4243678   -0.8462284 
C     1.1082362   -6.9368129   -0.9172625 
C    -0.3731933   -7.3709494   -1.0775446 
C     1.4710424   -6.9171393    0.5894602 
C     2.0125010   -7.9695005   -1.6222328 
C    -0.6048345   -2.3136150    1.0535009 
C    -1.7055004   -3.1937709    1.0133906 
C    -2.1868539   -3.7737495    2.1942548 
C    -3.3408085   -4.7939358    2.1997984 
C    -2.7875934   -6.1643333    2.6709969 
C    -3.9585067   -4.9683053    0.7964634 
C    -4.4506533   -4.3214017    3.1718846 
C    -1.5548141   -3.4196411    3.4088581 
C    -0.4742962   -2.5249529    3.4815134 
C     0.0023252   -1.9793810    2.2705368 
C     0.1943314   -2.1318510    4.8139382 
C    -0.4039893   -2.8896507    6.0169614 
C    -0.0013758   -0.6122565    5.0453471 
C     1.7074966   -2.4525905    4.7371916 
H    -0.9147078    1.7009202   -7.0559485 
H    -1.9582036    2.8649364   -6.2011594 
H    -1.8648529    1.1745524   -5.6309271 
H     1.1748744    0.8490408   -6.0744025 
H     0.3313207    0.2668069   -4.6110898 
H     1.7556372    1.3421507   -4.4678186 
H     0.0677028    4.4473171   -5.8484820 
H     1.0879503    3.2883226   -6.7455105 
H     1.5640669    3.8184831   -5.1043165 
H     0.5790056    1.3521698   -2.6036546 
H    -1.9038230    4.3086655   -4.5286326 
H    -5.2189946    5.5423039   -1.5673002 
H    -4.3348765    4.2070691   -0.7687399 
H    -4.8954607    4.0221054   -2.4531570 
H    -4.1628882    6.8334093   -3.4598089 
H    -2.5125802    6.4741126   -4.0295556 
H    -3.8480551    5.3237480   -4.3489539 
H    -2.4660376    5.9736674   -0.2537643 
H    -1.6582473    6.8109524   -1.6092002 
H    -3.3427095    7.2236074   -1.1702251 
H    -2.1081993    3.7547905   -0.2525551 
H    -0.2037239    4.6772380    0.5395694 
H    -1.1397994    6.0949315    3.7461151 
H    -1.3742714    7.6178404    2.8331167 
H    -1.5999996    6.0417503    2.0219299 
H     0.2846171    8.3073245    1.0437925 
H     1.7419822    7.3246870    0.7136321 
H     0.1374865    6.7464159    0.1978813 
H     1.1413699    7.0151960    4.4465604 
H     2.3758424    7.4071458    3.2087271 
H     0.9433339    8.4501744    3.4148156 
H     2.2585445    5.2008936    4.0399766 
H     1.9092827    1.3100429    2.2065821 
H     1.5478756    2.1213791    5.6976986 
H     3.1335471    2.3446050    6.4993854 
H     2.1954812    3.7650899    5.9592205 
H     2.7246900    0.5096807    4.0741949 
H     4.2936722    0.8509476    4.8373293 
H     4.0989825    1.0879373    3.0829131 
H     4.2560115    4.5728909    4.5903888 
H     5.1542359    3.1387446    5.1457284 
H     5.0018877    3.4733653    3.3974908 
H    -0.9376445    2.1644505    2.9218750 
H    -2.8767832    1.2802479    4.1997996 
H    -4.4666622   -0.3109886    3.1448340 
H    -5.5938137    1.4281215   -2.7143682 
H    -5.9067354    2.2076789   -1.1457809 
H    -5.9492132   -0.8332861   -1.6379615 
H    -7.3763356    0.2119964   -1.5848515 
H    -6.0794292    0.8317188    0.8741058 
H    -7.4826984   -0.2300277    0.6892763 
H    -5.9727781   -2.2181558    0.4377859 
H    -5.7834961   -1.3889173    2.0002046 
H    -4.2120659    0.3395976   -3.7705765 
H    -2.5823486   -1.2859776   -4.7118327 
H    -0.7734534   -2.2194068   -3.3008963 
H     1.5173669   -1.9052215   -3.0038332 
H     4.7301380   -3.8159394   -3.8468552 
H     4.6472997   -4.2499566   -5.5778246 
H     4.1581799   -5.4347653   -4.3393238 
H     1.7579076   -1.8879834   -5.2246673 
H     3.3221823   -1.7215356   -4.3694666 
H     3.2836795   -2.2391083   -6.0727423 
H     2.3875056   -4.4773249   -6.7542543 
H     0.8679674   -4.2146427   -5.8442299 
H     1.8554249   -5.6704349   -5.5380474 
H     2.3197346   -6.1319297   -3.3017868 
H     0.2038549   -4.5748012    0.1161218 
H    -1.0506371   -6.6658837   -0.5640506 
H    -0.6608813   -7.4048553   -2.1428743 
H    -0.5295223   -8.3746670   -0.6429225 
H     1.3888905   -7.9359723    1.0071461 
H     0.7950736   -6.2668951    1.1711519 
H     2.5017018   -6.5571567    0.7456268 
H     3.0766578   -7.6776979   -1.5672181 
H     1.7423482   -8.0997219   -2.6846863 
H     1.9053149   -8.9532752   -1.1339007 
H    -2.1715403   -3.4133403    0.0502790 
H    -2.3670397   -6.1034704    3.6897838 
H    -1.9895038   -6.5172973    1.9940849 
H    -3.5926462   -6.9208146    2.6801855 
H    -4.3284353   -4.0082600    0.3976635 
H    -3.2284590   -5.3803352    0.0777222 
H    -4.8069898   -5.6722461    0.8469654 
H    -4.8362697   -3.3329719    2.8700051 
H    -4.0831646   -4.2403075    4.2091411 
H    -5.2911849   -5.0379113    3.1703305 
H    -1.9286450   -3.8676411    4.3325951 
H     0.8495559   -1.2845317    2.2626097 
H     0.1110299   -2.5799730    6.9427654 
H    -0.2796205   -3.9820629    5.9141760 
H    -1.4787499   -2.6711746    6.1459541 
H     0.3928850   -0.0159850    4.2046939 
H     0.5191244   -0.2950283    5.9667606 
H    -1.0721480   -0.3695857    5.1479396 
H     2.2066450   -2.1752748    5.6829067 
H     1.8735942   -3.5287040    4.5567242 
H     2.1974510   -1.8974867    3.9212456 
