203
Energy =
C     3.2654661    1.4923824   -1.1312400 
C     3.7862429    0.4124580   -0.3818625 
C     3.5361692   -0.9348752   -0.7939175 
H     4.2441366    0.6025090    0.5968531 
Pd    1.6113259    0.1013107   -0.4048598 
P     0.1045884   -1.6602341   -0.5414795 
P    -0.0039494    1.6874617    0.1821734 
H     2.9799494    1.2722764   -2.1719382 
H     3.4431357   -1.1162993   -1.8737465 
C     3.5963881    5.7052089   -0.3779911 
C     2.9348536    5.2293236   -1.5201989 
C     2.8305697    3.8531755   -1.7430096 
C     3.3829874    2.9242475   -0.8296650 
C     4.0278265    3.4203771    0.3261726 
C     4.1318243    4.7960493    0.5483010 
H     3.7000073    6.7819134   -0.2105875 
H     2.5044823    5.9318639   -2.2413307 
H     2.3127827    3.4846826   -2.6346767 
H     4.4600902    2.7270006    1.0529069 
H     4.6368040    5.1628501    1.4473197 
C     4.6838576   -4.4144257    1.4719337 
C     4.5592775   -4.4758434    0.0765524 
C     4.1785257   -3.3399436   -0.6468361 
C     3.9155120   -2.1159219    0.0059450 
C     4.0299953   -2.0723033    1.4154701 
C     4.4163525   -3.2060498    2.1372419 
H     4.9833801   -5.3009271    2.0404874 
H     4.7597991   -5.4114173   -0.4560114 
H     4.0813031   -3.3978230   -1.7343817 
H     3.8002099   -1.1453804    1.9522060 
H     4.5045260   -3.1510223    3.2269775 
C    -3.5731649    6.0404953   -3.4334149 
C    -3.2647444    5.3227570   -2.1027867 
C    -2.7391900    6.3761632   -1.0943054 
C    -4.5769926    4.7002236   -1.5656593 
C    -2.2091162    4.2107514   -2.2685164 
C    -1.7402438    3.5200194   -1.1306451 
C    -1.6788959    3.8497253   -3.5197836 
C    -0.7102548    2.8336629   -3.6813909 
C    -0.1979465    2.4638437   -5.0861186 
C    -1.3995334    2.1098613   -5.9987264 
C     0.7515902    1.2469310   -5.0466671 
C     0.5668826    3.6755080   -5.6779597 
C    -0.2332130    2.2057448   -2.5244539 
C    -0.7291050    2.5557432   -1.2534555 
C     0.7582362    2.8970562    1.3342270 
C     1.6626891    2.3598649    2.2769462 
C     2.2204163    3.1667756    3.2783804 
C     3.2030783    2.6200322    4.3328600 
C     2.5087052    2.6547215    5.7193222 
C     4.4806276    3.4964081    4.3717015 
C     3.6291174    1.1680000    4.0305992 
C     1.8326704    4.5251671    3.3159434 
C     0.9438186    5.0923020    2.3876273 
C     0.4232775    4.2547515    1.3771294 
C     0.4567379    6.5517986    2.4884329 
C     0.5881490    7.2655835    1.1211025 
C    -1.0367659    6.5227152    2.9114080 
C     1.2502066    7.3616214    3.5350566 
C    -1.4359633    1.0398833    1.1474413 
C    -1.6136573    1.3958484    2.4996444 
C    -2.6859039    0.8648329    3.2253149 
C    -3.5826256   -0.0281730    2.6289303 
C    -2.3353067    0.1450822    0.5230193 
C    -3.4109422   -0.3847149    1.2814716 
C    -2.2983063   -0.2103954   -0.9292899 
C    -3.3562081    0.3027572   -1.7259501 
O    -4.2066174    1.1617742   -1.0897228 
C    -5.5838822    1.2357220   -1.4980142 
C    -6.3821423    0.0067906   -1.0597051 
C    -6.4264839   -0.1947184    0.4772455 
C    -5.6054330   -1.3841752    0.9766594 
O    -4.2159426   -1.2715630    0.6222184 
C    -3.4732863   -0.0476939   -3.0806682 
C    -2.5457816   -0.9304346   -3.6440452 
C    -1.4968888   -1.4515712   -2.8787719 
C    -1.3596621   -1.0901412   -1.5224444 
C     0.7919811   -3.0913436   -1.4634339 
C     0.7544118   -4.3899968   -0.9434966 
C     1.3234581   -5.4703273   -1.6506630 
C     1.2124953   -6.8929390   -1.0679346 
C    -0.2528016   -7.3699170   -1.2531954 
C     1.5570419   -6.8893464    0.4431209 
C     2.1576251   -7.8837339   -1.7800001 
C     1.9211642   -5.1987383   -2.8917534 
C     1.9870518   -3.8964036   -3.4414972 
C     1.4279685   -2.8458580   -2.7005391 
C     2.6647559   -3.6730900   -4.8080192 
C     2.6594294   -2.1860735   -5.2209171 
C     1.8995008   -4.4833403   -5.8860716 
C     4.1361669   -4.1567885   -4.7429196 
C    -0.5590235   -2.3432535    1.0141243 
C    -1.6448429   -3.2414961    0.9713264 
C    -2.0967694   -3.8564724    2.1461050 
C    -3.2321858   -4.8972989    2.1462549 
C    -4.3344159   -4.4673051    3.1463875 
C    -2.6472670   -6.2679751    2.5766401 
C    -3.8692596   -5.0507950    0.7491394 
C    -1.4513357   -3.5186800    3.3583739 
C    -0.3855196   -2.6067530    3.4343606 
C     0.0618472   -2.0256793    2.2287023 
C     0.2984982   -2.2327029    4.7645018 
C     1.8151800   -2.5266823    4.6558455 
C    -0.2674805   -3.0273505    5.9593616 
C     0.0824895   -0.7221436    5.0339874 
H    -4.3189479    6.8356280   -3.2611787 
H    -3.9935771    5.3492194   -4.1850097 
H    -2.6715072    6.5136073   -3.8607684 
H    -3.4741951    7.1918039   -0.9749408 
H    -1.7897396    6.8163778   -1.4458871 
H    -2.5641699    5.9381312   -0.0968377 
H    -4.9924815    3.9916679   -2.3019667 
H    -5.3286823    5.4886123   -1.3817785 
H    -4.4118145    4.1527441   -0.6220183 
H    -2.1697423    3.7274831   -0.1454875 
H    -2.0373795    4.3680800   -4.4123374 
H    -1.0438916    1.8296108   -7.0061806 
H    -2.0912035    2.9617390   -6.1141047 
H    -1.9676163    1.2616381   -5.5797527 
H     1.0691445    0.9862504   -6.0708403 
H     1.6666201    1.4556768   -4.4633047 
H     0.2550216    0.3638721   -4.6075158 
H    -0.0826527    4.5645322   -5.7554462 
H     1.4322782    3.9412001   -5.0448407 
H     0.9406717    3.4384233   -6.6900751 
H     0.5187470    1.4136280   -2.5825183 
H     1.9186123    1.2969264    2.2070966 
H     1.5949097    2.0355488    5.7135894 
H     3.1872834    2.2661689    6.4998115 
H     2.2221452    3.6831024    5.9992521 
H     5.1796746    3.1141878    5.1362257 
H     4.9995595    3.4820255    3.3973001 
H     4.2546579    4.5465874    4.6221054 
H     2.7731915    0.4730757    4.0445564 
H     4.1254246    1.0902942    3.0465899 
H     4.3473868    0.8219373    4.7933238 
H     2.2451832    5.1588322    4.1045474 
H    -0.2609598    4.6654248    0.6308836 
H     0.0349102    6.7427485    0.3235916 
H     0.1845462    8.2910193    1.1915930 
H     1.6443607    7.3293428    0.8137476 
H    -1.6528369    5.9845230    2.1700123 
H    -1.4311408    7.5508129    3.0013083 
H    -1.1587137    6.0171512    3.8853464 
H     2.3290211    7.3808943    3.2987912 
H     0.8892028    8.4043732    3.5484262 
H     1.1235687    6.9567190    4.5544083 
H    -0.9227876    2.0917969    2.9816234 
H    -2.8252785    1.1499002    4.2731848 
H    -4.4078122   -0.4446953    3.2119961 
H    -5.6644851    1.4001453   -2.5885989 
H    -5.9625511    2.1410137   -0.9985407 
H    -5.9631352   -0.8891923   -1.5549649 
H    -7.4064081    0.1302255   -1.4559314 
H    -6.0783495    0.7193590    0.9941716 
H    -7.4672779   -0.3610591    0.8096642 
H    -5.9302626   -2.3184523    0.4905016 
H    -5.7270249   -1.5195744    2.0669640 
H    -4.2824635    0.3590819   -3.6921718 
H    -2.6448206   -1.2211032   -4.6951034 
H    -0.7997127   -2.1578657   -3.3346079 
H     0.2821297   -4.5664098    0.0251721 
H    -0.9568591   -6.6933998   -0.7369418 
H    -0.3833824   -8.3847943   -0.8362654 
H    -0.5268898   -7.3954556   -2.3223355 
H     2.5689853   -6.4880233    0.6199508 
H     0.8461913   -6.2827771    1.0303186 
H     1.5146160   -7.9194899    0.8382442 
H     2.0822250   -8.8771932   -1.3055081 
H     3.2101970   -7.5546080   -1.7138491 
H     1.8996906   -8.0098934   -2.8459320 
H     2.3623198   -6.0227069   -3.4581856 
H     1.4828733   -1.8184562   -3.0720099 
H     1.6334570   -1.7906260   -5.3192678 
H     3.2054077   -1.5562443   -4.4950589 
H     3.1567703   -2.0695303   -6.1990361 
H     2.3650138   -4.3372475   -6.8770901 
H     0.8461467   -4.1571579   -5.9463158 
H     1.9085033   -5.5644249   -5.6650731 
H     4.2052734   -5.2246581   -4.4739704 
H     4.7097154   -3.5791484   -3.9963547 
H     4.6251017   -4.0247792   -5.7243562 
H    -2.1221156   -3.4479630    0.0108562 
H    -4.7428473   -3.4796033    2.8733683 
H    -3.9515683   -4.4028889    4.1792617 
H    -5.1617374   -5.1989958    3.1418049 
H    -1.8549494   -6.5912812    1.8784778 
H    -2.2103853   -6.2227926    3.5893596 
H    -3.4387651   -7.0386639    2.5819454 
H    -3.1436050   -5.4329779    0.0097219 
H    -4.2627250   -4.0888327    0.3783856 
H    -4.7041333   -5.7710221    0.7967058 
H    -1.8021867   -3.9941234    4.2774043 
H     0.8973597   -1.3167244    2.2230729 
H     2.3252277   -2.2637025    5.5998403 
H     2.2827916   -1.9445144    3.8456358 
H     1.9955583   -3.5953116    4.4469658 
H    -1.3435332   -2.8302670    6.1101970 
H     0.2572122   -2.7297140    6.8836935 
H    -0.1264517   -4.1149160    5.8299946 
H     0.6142518   -0.4172109    5.9531411 
H     0.4520699   -0.1006451    4.2004501 
H    -0.9900409   -0.4995049    5.1608929 
