203
Energy =
C     2.2550793    1.4104139    2.6803503 
C     1.0449945    2.0640755    3.0774821 
C    -0.0525137    1.2958868    3.5307836 
H     0.9139345    3.1354069    2.8803938 
Pd    0.5660214    0.7012191    1.4222887 
P    -1.5408570    0.4272107    0.4625487 
P     1.6551998   -0.5727781   -0.1869535 
H     2.5100059    0.4773080    3.2011169 
H     0.1798444    0.2771349    3.8793556 
C     5.6479401    3.3908210    0.9133959 
C     4.3673858    3.9547717    0.7845735 
C     3.2548441    3.3175348    1.3428863 
C     3.3979404    2.1040460    2.0565623 
C     4.6902072    1.5447178    2.1689851 
C     5.8021998    2.1812528    1.6061055 
H     6.5167341    3.8914620    0.4736230 
H     4.2365807    4.8955299    0.2402340 
H     2.2611828    3.7602621    1.2121708 
H     4.8192902    0.5985905    2.7026257 
H     6.7934756    1.7283593    1.7129530 
C    -3.9841932    2.5567985    4.7066541 
C    -3.6093285    1.2069129    4.7769845 
C    -2.3232312    0.8200921    4.3892437 
C    -1.3859935    1.7706509    3.9200999 
C    -1.7834747    3.1251447    3.8442415 
C    -3.0689170    3.5116495    4.2338675 
H    -4.9861717    2.8650653    5.0215730 
H    -4.3181431    0.4546442    5.1384245 
H    -2.0349349   -0.2345011    4.4434043 
H    -1.0828713    3.8831684    3.4829030 
H    -3.3608107    4.5643191    4.1666728 
C    -2.1677145    6.6780652    1.6985074 
C    -1.8056978    5.7444544    0.5156102 
C    -2.2678622    6.3884494   -0.8171143 
C    -0.2702081    5.5882035    0.4842214 
C    -2.5206112    4.3889436    0.6807042 
C    -1.8391673    3.1642692    0.5979575 
C    -3.9110818    4.3443466    0.9107609 
C    -4.6205793    3.1438909    1.1056371 
C    -6.1480977    3.1624595    1.3126486 
C    -6.8084885    3.4422649   -0.0636047 
C    -6.5577354    4.2745735    2.3091396 
C    -6.6693265    1.8113864    1.8513881 
C    -3.9008544    1.9353813    1.0330478 
C    -2.5280302    1.9438158    0.7512693 
C    -2.4404784   -1.0314563    1.0884932 
C    -3.6898389   -1.4188758    0.5748860 
C    -4.3577130   -2.5348723    1.1098324 
C    -5.7627775   -2.9525380    0.6337183 
C    -6.1948893   -2.1755139   -0.6283972 
C    -6.7712839   -2.6538715    1.7739520 
C    -5.7886224   -4.4661791    0.3053160 
C    -3.7143915   -3.2579274    2.1356546 
C    -2.4361573   -2.9268070    2.6291088 
C    -1.8138824   -1.7905615    2.0911959 
C    -1.7727562   -3.7776894    3.7291691 
C    -2.5843493   -3.6191144    5.0405171 
C    -1.7603976   -5.2672244    3.3025016 
C    -0.3138963   -3.3396510    3.9884908 
C    -1.5615406    0.2585976   -1.3740743 
C    -2.0893183    1.2787423   -2.1909432 
C    -2.0704597    1.1368728   -3.5829742 
C    -1.5273811   -0.0061795   -4.1795646 
C    -1.0119061   -0.9064521   -1.9563925 
C    -1.0054195   -1.0280591   -3.3698231 
C    -0.5259703   -2.0868092   -1.1776769 
C    -1.3161141   -3.2634257   -1.2682975 
O    -2.4964852   -3.1232732   -1.9409814 
C    -3.0658613   -4.2463583   -2.6341326 
C    -2.3075868   -4.5678351   -3.9235034 
C    -2.2786421   -3.4015225   -4.9452474 
C    -0.9112703   -2.7322104   -5.0984429 
O    -0.4364543   -2.1700708   -3.8620776 
C    -0.8982411   -4.4608625   -0.6661890 
C     0.3221113   -4.4941462    0.0169905 
C     1.1137510   -3.3458618    0.1271842 
C     0.6927876   -2.1332996   -0.4576080 
C     1.9089143    0.1607060   -1.8361682 
C     1.7341713    1.5390301   -2.0122168 
C     1.9896126    2.1383603   -3.2637731 
C     1.7651416    3.6528180   -3.4464702 
C     2.5711688    4.4235718   -2.3720345 
C     0.2550407    3.9565412   -3.2757875 
C     2.2100766    4.1482383   -4.8378743 
C     2.4378665    1.3050391   -4.3022331 
C     2.6206482   -0.0894892   -4.1520404 
C     2.3355333   -0.6557517   -2.9029215 
C     3.1437011   -0.9271308   -5.3338993 
C     2.2259804   -0.7180922   -6.5645304 
C     3.1776697   -2.4330725   -4.9981885 
C     4.5840482   -0.4625214   -5.6729577 
C     3.3080974   -1.1172450    0.3909099 
C     4.4644766   -0.9387887   -0.3814577 
C     5.7243940   -1.3350327    0.1062640 
C     6.9662957   -1.1771435   -0.7936648 
C     8.2795587   -1.2911097    0.0099606 
C     6.9517793    0.1959903   -1.5118361 
C     6.9247321   -2.3052064   -1.8594341 
C     5.7844206   -1.9219958    1.3859435 
C     4.6399985   -2.1096619    2.1900292 
C     3.4044516   -1.6791745    1.6777035 
C     4.6884331   -2.7760153    3.5800906 
C     6.1335198   -3.0545550    4.0427142 
C     3.9207755   -4.1222701    3.5040315 
C     4.0076998   -1.8591044    4.6285993 
H    -1.6530267    7.6487048    1.5878887 
H    -1.8571503    6.2339217    2.6608240 
H    -3.2508270    6.8800711    1.7504488 
H    -1.7768866    7.3672868   -0.9636944 
H    -3.3597173    6.5501434   -0.8266825 
H    -2.0117062    5.7397961   -1.6730835 
H     0.1055547    5.1183054    1.4111227 
H     0.2047220    6.5803027    0.3969699 
H     0.0691428    4.9845934   -0.3738996 
H    -0.7605534    3.1362803    0.4096176 
H    -4.4625118    5.2885145    0.9515832 
H    -7.9089672    3.4638951    0.0333807 
H    -6.5391701    2.6583090   -0.7934056 
H    -6.4800545    4.4143674   -0.4715010 
H    -7.6503759    4.2553377    2.4659555 
H    -6.0658847    4.1318903    3.2858671 
H    -6.2983905    5.2811515    1.9394464 
H    -6.5208713    0.9929264    1.1254407 
H    -6.1663924    1.5313790    2.7935738 
H    -7.7530497    1.8816072    2.0468442 
H    -4.4079240    0.9822171    1.1897612 
H    -4.1230984   -0.8542949   -0.2535095 
H    -5.4740641   -2.3138810   -1.4533053 
H    -7.1809878   -2.5356139   -0.9684980 
H    -6.2898167   -1.0928722   -0.4325879 
H    -7.7941861   -2.9382101    1.4682847 
H    -6.5196617   -3.2169450    2.6896657 
H    -6.7702982   -1.5784436    2.0247535 
H    -5.0560367   -4.7087270   -0.4829972 
H    -5.5568450   -5.0860796    1.1880122 
H    -6.7914414   -4.7601450   -0.0514647 
H    -4.2280207   -4.1265110    2.5607565 
H    -0.8177266   -1.4839335    2.4218132 
H    -3.6298061   -3.9479548    4.9085176 
H    -2.1357456   -4.2248802    5.8480416 
H    -2.5996163   -2.5645074    5.3688428 
H    -2.7806937   -5.6614968    3.1576970 
H    -1.2727015   -5.8822438    4.0795025 
H    -1.2066139   -5.3949018    2.3569104 
H    -0.2554280   -2.3049343    4.3721124 
H     0.1451536   -3.9962356    4.7473953 
H     0.2937828   -3.4037502    3.0685866 
H    -2.5235347    2.1751758   -1.7421166 
H    -2.4866946    1.9287806   -4.2141159 
H    -1.5111020   -0.0987718   -5.2684703 
H    -4.0980672   -3.9289925   -2.8548270 
H    -3.1253453   -5.1310008   -1.9738232 
H    -2.7935567   -5.4535642   -4.3714402 
H    -1.2778489   -4.8769222   -3.6631482 
H    -2.5689160   -3.7676115   -5.9468162 
H    -3.0225045   -2.6303925   -4.6696184 
H    -0.9330052   -1.9688028   -5.8975802 
H    -0.1392239   -3.4706817   -5.3695800 
H    -1.5145809   -5.3608809   -0.7303731 
H     0.6638223   -5.4307908    0.4696424 
H     2.0707247   -3.4041061    0.6500922 
H     1.3921711    2.1391709   -1.1615253 
H     2.2537262    4.1507149   -1.3527320 
H     2.4243484    5.5120040   -2.4915876 
H     3.6499030    4.2054475   -2.4554574 
H    -0.3341974    3.4543594   -4.0612379 
H    -0.1235792    3.6013141   -2.3021934 
H     0.0719434    5.0442104   -3.3420159 
H     2.0421511    5.2364754   -4.9146210 
H     1.6354124    3.6664969   -5.6484886 
H     3.2842477    3.9611800   -5.0125910 
H     2.6561602    1.7503571   -5.2758752 
H     2.4363619   -1.7308134   -2.7379805 
H     1.1900558   -1.0160919   -6.3296463 
H     2.2107517    0.3350998   -6.8932820 
H     2.5797367   -1.3287082   -7.4141440 
H     3.5179964   -3.0041466   -5.8791984 
H     2.1786454   -2.8033078   -4.7105597 
H     3.8773068   -2.6510448   -4.1718175 
H     5.2532203   -0.6009138   -4.8050799 
H     4.6105121    0.6040886   -5.9560319 
H     4.9879101   -1.0485667   -6.5178794 
H     4.3825249   -0.4820887   -1.3700772 
H     8.4061543   -2.2909382    0.4602061 
H     8.3235310   -0.5390207    0.8179845 
H     9.1412486   -1.1227870   -0.6585794 
H     6.0942910    0.2971271   -2.1992559 
H     6.9027280    1.0256508   -0.7867490 
H     7.8698804    0.3115526   -2.1141136 
H     6.0066200   -2.2369143   -2.4700936 
H     6.9428806   -3.3001599   -1.3813570 
H     7.7947300   -2.2286792   -2.5363646 
H     6.7537521   -2.2400633    1.7713055 
H     2.4969688   -1.7807019    2.2842513 
H     6.1208155   -3.5142905    5.0458479 
H     6.7266117   -2.1251576    4.1055423 
H     6.6530661   -3.7538551    3.3646798 
H     2.8645015   -3.9681054    3.2204868 
H     3.9370551   -4.6308150    4.4846897 
H     4.3807035   -4.7936752    2.7580310 
H     4.0532527   -2.3252486    5.6285692 
H     4.5111637   -0.8779536    4.6858177 
H     2.9417255   -1.6872537    4.3951435 
