203
Energy =
C     2.3748147    1.5850167    2.4214696 
C     1.1593116    1.9573692    3.0848687 
C     0.3135896    0.9589721    3.6196415 
H     0.7982839    2.9914090    3.0234995 
Pd    0.6540386    0.6573363    1.3878360 
P    -1.5071596    0.1885828    0.6609470 
P     1.7027959   -0.3480745   -0.4358225 
H     2.9043798    0.6988375    2.7967054 
H     0.7740907   -0.0251597    3.8036380 
C     4.7990981    4.2264360    0.0316254 
C     5.3186552    3.0178257    0.5176908 
C     4.5292971    2.1730158    1.3074780 
C     3.1956004    2.5170930    1.6252543 
C     2.6833455    3.7388765    1.1256747 
C     3.4770452    4.5845513    0.3453152 
H     5.4179913    4.8869740   -0.5843023 
H     6.3485010    2.7304516    0.2836340 
H     4.9441615    1.2295827    1.6784645 
H     1.6478840    4.0245951    1.3368138 
H     3.0617601    5.5273745   -0.0259618 
C    -3.5494222    1.3216413    5.4575526 
C    -2.9414308    0.0674419    5.2982805 
C    -1.6800996   -0.0236606    4.7034751 
C    -1.0015215    1.1319063    4.2488143 
C    -1.6311946    2.3873459    4.4102091 
C    -2.8913651    2.4783035    5.0083404 
H    -4.5319786    1.3984810    5.9338834 
H    -3.4485841   -0.8406026    5.6407003 
H    -1.2091004   -1.0036795    4.5794967 
H    -1.1326231    3.2998018    4.0721778 
H    -3.3659323    3.4578079    5.1229838 
C    -6.6783248    2.8992693    3.6900692 
C    -6.2772296    2.0199716    2.4803258 
C    -6.5164251    0.5405923    2.8542624 
C    -7.1744361    2.3818025    1.2668835 
C    -4.8119647    2.2761749    2.0757378 
C    -3.9469197    1.2226514    1.7248159 
C    -4.3186515    3.5914475    1.9813062 
C    -2.9988456    3.8921577    1.5893878 
C    -2.5201211    5.3562962    1.5243702 
C    -0.9799315    5.4554378    1.4865356 
C    -3.0156027    6.1470090    2.7603452 
C    -3.0947705    5.9949016    0.2329276 
C    -2.1681689    2.8167321    1.2309623 
C    -2.6461369    1.4908303    1.2736598 
C    -2.1774008   -1.4424294    1.1284078 
C    -3.4204050   -1.8955875    0.6520582 
C    -3.9320114   -3.1332261    1.0797824 
C    -5.3185253   -3.6455756    0.6435528 
C    -5.9457235   -2.7464970   -0.4430543 
C    -6.2508332   -3.6560505    1.8832752 
C    -5.1989761   -5.0832952    0.0789694 
C    -3.1429507   -3.9008817    1.9605775 
C    -1.8696623   -3.4974757    2.4093935 
C    -1.4022367   -2.2444868    1.9826219 
C    -1.0523873   -4.4010143    3.3522224 
C    -1.7658124   -4.4584466    4.7275973 
C    -0.9538164   -5.8285550    2.7576980 
C     0.3818144   -3.8666895    3.5537895 
C    -1.6673650    0.2899261   -1.1745996 
C    -2.3167593    1.3793082   -1.7895046 
C    -2.3713911    1.4607003   -3.1856593 
C    -1.7926759    0.4682330   -3.9847652 
C    -1.0704929   -0.7203587   -1.9645109 
C    -1.1543099   -0.6254955   -3.3771113 
C    -0.4185280   -1.9440115   -1.4034860 
C    -1.1028330   -3.1729982   -1.5871505 
O    -2.3423993   -3.0748947   -2.1536373 
C    -2.8430127   -4.1482395   -2.9693157 
C    -2.1672677   -4.1818915   -4.3410787 
C    -2.3607164   -2.8838943   -5.1672680 
C    -1.0866378   -2.0548604   -5.3381443 
O    -0.5431482   -1.6301300   -4.0751390 
C    -0.5314968   -4.3840374   -1.1633158 
C     0.7354685   -4.3757867   -0.5696283 
C     1.4313543   -3.1761875   -0.3806209 
C     0.8581899   -1.9553112   -0.7907209 
C     1.7576166    0.5503623   -2.0206799 
C     1.3769373    1.9016949   -2.0464280 
C     1.4244718    2.6282100   -3.2493996 
C     1.0130124    4.1102722   -3.3347351 
C     0.2891116    4.5704456   -2.0523544 
C     0.0566623    4.3304341   -4.5330151 
C     2.2935964    4.9642222   -3.5241370 
C     1.8973732    1.9597784   -4.3950746 
C     2.2831411    0.6037470   -4.3993615 
C     2.1891786   -0.1036697   -3.1897377 
C     2.8007880   -0.0439473   -5.6981955 
C     3.0501021   -1.5566503   -5.5224244 
C     4.1340336    0.6386244   -6.0997616 
C     1.7628744    0.1555658   -6.8310339 
C     3.4333415   -0.7854707   -0.0078817 
C     4.5161088   -0.4811026   -0.8461601 
C     5.8356158   -0.7785787   -0.4494470 
C     7.0390562   -0.5129510   -1.3755547 
C     6.6622593    0.4149791   -2.5511045 
C     7.5135099   -1.8763700   -1.9445729 
C     8.2005607    0.1443316   -0.5897982 
C     6.0246533   -1.3690284    0.8133400 
C     4.9594822   -1.6658805    1.6913189 
C     3.6588978   -1.3673584    1.2569003 
C     5.2511785   -2.2472923    3.0879694 
C     3.9564556   -2.5538373    3.8693247 
C     6.0763462   -1.2080492    3.8910341 
C     6.0586502   -3.5622974    2.9475965 
H    -7.7215703    2.6853379    3.9810106 
H    -6.6171693    3.9765647    3.4603908 
H    -6.0293037    2.6973856    4.5586004 
H    -7.5572741    0.4053052    3.1949460 
H    -5.8427023    0.2149293    3.6662585 
H    -6.3648576   -0.1308902    1.9914213 
H    -7.0507935    3.4416523    0.9829418 
H    -8.2389402    2.2129524    1.5101496 
H    -6.9156453    1.7618596    0.3902923 
H    -4.2838386    0.1876485    1.7963863 
H    -4.9880192    4.4177624    2.2359054 
H    -0.6722464    6.5150023    1.4764803 
H    -0.5559045    4.9821577    0.5868084 
H    -0.5260490    4.9834324    2.3765623 
H    -2.6299911    7.1808082    2.7256230 
H    -4.1157990    6.2092093    2.8041748 
H    -2.6612019    5.6797841    3.6964773 
H    -2.7319760    5.4584200   -0.6617356 
H    -4.1980503    5.9572401    0.2301910 
H    -2.7856600    7.0526900    0.1518796 
H    -1.1369657    2.9933167    0.9061944 
H    -3.9715706   -1.2807024   -0.0626934 
H    -5.2941088   -2.6741104   -1.3314277 
H    -6.9155992   -3.1662491   -0.7607254 
H    -6.1348179   -1.7239183   -0.0712123 
H    -7.2577751   -4.0148733    1.6043489 
H    -5.8602993   -4.3193465    2.6746628 
H    -6.3493916   -2.6419980    2.3081971 
H    -4.5180817   -5.1080728   -0.7882119 
H    -4.8163841   -5.7926287    0.8325088 
H    -6.1891501   -5.4474180   -0.2473756 
H    -3.5346271   -4.8638912    2.3041621 
H    -0.4186663   -1.8756148    2.2861714 
H    -2.7881767   -4.8639271    4.6329258 
H    -1.2057411   -5.1045398    5.4271645 
H    -1.8409630   -3.4507113    5.1736575 
H    -1.9460018   -6.2980238    2.6464964 
H    -0.3520814   -6.4760577    3.4198149 
H    -0.4740610   -5.8029305    1.7643010 
H     0.3925021   -2.8802810    4.0512522 
H     0.9536476   -4.5598356    4.1943262 
H     0.9125091   -3.7727396    2.5900900 
H    -2.7899628    2.1537798   -1.1806781 
H    -2.8789242    2.3072666   -3.6595301 
H    -1.8356918    0.5491175   -5.0737662 
H    -3.9196223   -3.9326240   -3.0658033 
H    -2.7441994   -5.1195900   -2.4514493 
H    -2.5829051   -5.0479603   -4.8874392 
H    -1.0903189   -4.3911861   -4.1993234 
H    -2.7241599   -3.1286918   -6.1818254 
H    -3.1369157   -2.2455336   -4.7048795 
H    -1.2657227   -1.1906151   -6.0031946 
H    -0.2805432   -2.6569163   -5.7882433 
H    -1.0686577   -5.3268919   -1.2923566 
H     1.1896809   -5.3204057   -0.2528578 
H     2.4274273   -3.1942293    0.0683267 
H     1.0353816    2.3658386   -1.1172661 
H    -0.6074625    3.9559660   -1.8555299 
H    -0.0325461    5.6212734   -2.1565207 
H     0.9509386    4.5115122   -1.1726582 
H     0.5371140    4.0921814   -5.4972269 
H    -0.8435393    3.6997621   -4.4339839 
H    -0.2607190    5.3873959   -4.5745078 
H     2.0375186    6.0378256   -3.5792782 
H     2.8209906    4.6908630   -4.4547581 
H     2.9901219    4.8124993   -2.6813213 
H     1.9642596    2.5209318   -5.3327432 
H     2.4384507   -1.1661013   -3.1415681 
H     3.8378741   -1.7564968   -4.7743508 
H     2.1319958   -2.0808705   -5.2046990 
H     3.3835578   -1.9942217   -6.4791914 
H     4.5266654    0.1947493   -7.0320578 
H     4.8939589    0.5115642   -5.3094124 
H     3.9991876    1.7210792   -6.2690499 
H     1.5924182    1.2235059   -7.0498162 
H     0.7947715   -0.2936936   -6.5552418 
H     2.1163121   -0.3232585   -7.7614095 
H     4.3268938    0.0022942   -1.8055792 
H     6.2616713    1.3804615   -2.1944197 
H     5.9086298   -0.0459974   -3.2127965 
H     7.5564508    0.6204802   -3.1641541 
H     7.8157946   -2.5629024   -1.1344012 
H     6.7057247   -2.3629015   -2.5193752 
H     8.3795664   -1.7333169   -2.6154860 
H     8.5806575   -0.5067117    0.2156369 
H     7.8835066    1.0987292   -0.1350279 
H     9.0448420    0.3517270   -1.2701400 
H     7.0445319   -1.5994244    1.1364803 
H     2.8004130   -1.5674038    1.9056527 
H     4.2088952   -2.9724011    4.8585662 
H     3.3273001   -3.2920442    3.3430296 
H     3.3527962   -1.6441061    4.0414283 
H     7.0353070   -0.9794850    3.3950011 
H     6.3002558   -1.5930491    4.9018531 
H     5.5160215   -0.2618047    3.9983883 
H     6.2757711   -3.9845982    3.9447207 
H     5.4895488   -4.3122708    2.3704784 
H     7.0227127   -3.3989694    2.4365291 
