203
Energy =
C     3.4034822    1.2535688   -0.9787170 
C     3.8306580    0.2613066   -0.0671772 
C     3.5603865   -1.1206512   -0.3376361 
H     4.2047724    0.5626703    0.9189394 
Pd    1.6567557   -0.0033075   -0.2330211 
P     0.1052937   -1.7307093   -0.4461136 
P     0.0705764    1.6408446    0.2055061 
H     3.1868339    0.9137155   -2.0042295 
H     3.5648417   -1.4402021   -1.3881314 
C     3.6149891    5.5319192   -0.6894471 
C     3.0420478    4.9122277   -1.8100641 
C     2.9911577    3.5175635   -1.8837162 
C     3.5039704    2.7115658   -0.8397749 
C     4.0713535    3.3518264    0.2857331 
C     4.1248803    4.7468649    0.3575871 
H     3.6673380    6.6238535   -0.6332984 
H     2.6374793    5.5157834   -2.6292664 
H     2.5419125    3.0372879   -2.7584216 
H     4.4795171    2.7578970    1.1081502 
H     4.5651758    5.2263993    1.2373107 
C     4.0000608   -4.3285206    2.5042539 
C     3.9150553   -4.5932554    1.1296412 
C     3.7895734   -3.5436388    0.2113535 
C     3.7401998   -2.2009349    0.6504556 
C     3.8244053   -1.9484441    2.0411977 
C     3.9593292   -2.9980601    2.9544353 
H     4.1000774   -5.1502877    3.2207526 
H     3.9497963   -5.6256150    0.7678191 
H     3.7196407   -3.7612211   -0.8600758 
H     3.7684868   -0.9209480    2.4148607 
H     4.0280353   -2.7794147    4.0253074 
C     0.8537088    1.0951136   -5.0216659 
C    -0.1091044    2.3011871   -5.0831131 
C     0.6539734    3.5261812   -5.6495665 
C    -1.2790881    1.9341000   -6.0303006 
C    -0.6586339    2.6618957   -3.6897633 
C    -0.1584158    2.0764206   -2.5165584 
C    -1.6799431    3.6224148   -3.5487399 
C    -2.2399718    3.9789595   -2.3045746 
C    -3.3502980    5.0457339   -2.2378676 
C    -3.9375028    5.1743212   -0.8162303 
C    -4.4992332    4.6753775   -3.2090047 
C    -2.7452084    6.4122416   -2.6531629 
C    -1.7315729    3.3526172   -1.1530251 
C    -0.6753216    2.4308946   -1.2592784 
C     0.8199464    2.9395301    1.2628427 
C     1.6663167    2.4949763    2.2993434 
C     2.2123052    3.4040360    3.2213622 
C     3.1141570    2.9493385    4.3863108 
C     3.6872853    1.5351916    4.1507029 
C     2.2595136    2.9333581    5.6805484 
C     4.3072408    3.9210471    4.5623747 
C     1.8755762    4.7642048    3.0699131 
C     1.0698276    5.2447845    2.0200499 
C     0.5518550    4.3072651    1.1065742 
C     0.7140180    6.7420482    1.9310112 
C    -0.3542056    7.0409189    3.0162665 
C     1.9610636    7.6232105    2.1883743 
C     0.1360201    7.1105805    0.5467065 
C    -1.3369662    1.0059524    1.2150697 
C    -1.4593864    1.3357674    2.5799985 
C    -2.4995430    0.7879109    3.3392528 
C    -3.4282964   -0.0835212    2.7592909 
C    -2.2624659    0.1230505    0.6111692 
C    -3.3181324   -0.4063104    1.3967297 
C    -2.2560809   -0.2309013   -0.8420079 
C    -3.3045144    0.3053042   -1.6331221 
O    -4.1306207    1.1860733   -0.9934174 
C    -5.5106628    1.2851530   -1.3859814 
C    -6.3273147    0.0857480   -0.9021538 
C    -6.3299807   -0.0922760    0.6383697 
C    -5.5526463   -1.3151792    1.1284863 
O    -4.1655079   -1.2623176    0.7493737 
C    -3.4287176   -0.0367342   -2.9895970 
C    -2.5169330   -0.9326322   -3.5583567 
C    -1.4758715   -1.4765639   -2.7973991 
C    -1.3349786   -1.1256094   -1.4392025 
C     0.8262654   -3.1007163   -1.4310517 
C     0.7611714   -4.4457153   -1.0275066 
C     1.3724183   -5.4515125   -1.7977365 
C     1.2750293   -6.9415759   -1.4144650 
C     0.7179511   -7.1318885    0.0128301 
C     2.6689357   -7.6134610   -1.4882434 
C     0.3185504   -7.6355300   -2.4202162 
C     2.0557082   -5.0670863   -2.9715993 
C     2.1541068   -3.7273864   -3.3928342 
C     1.5291860   -2.7498231   -2.5968314 
C     2.8862296   -3.3025921   -4.6809923 
C     1.8283958   -2.8125970   -5.7041214 
C     3.6832492   -4.4655205   -5.3078749 
C     3.8733243   -2.1490291   -4.3670994 
C    -0.6024074   -2.4652774    1.0639998 
C    -0.0484791   -2.1223190    2.3080498 
C    -0.5650500   -2.6799810    3.4908855 
C     0.0008373   -2.3350892    4.8815950 
C    -1.1523464   -1.9842623    5.8544316 
C     0.9600056   -1.1281657    4.8184992 
C     0.7766672   -3.5674766    5.4147559 
C    -1.6186666   -3.6061962    3.3678563 
C    -2.1967557   -3.9657032    2.1332876 
C    -1.6810803   -3.3644413    0.9735515 
C    -3.3396003   -4.9983331    2.0906934 
C    -2.7873125   -6.3717266    2.5527067 
C    -3.9210341   -5.1489240    0.6692168 
C    -4.4792294   -4.5578837    3.0433139 
H     1.1880486    0.8290729   -6.0389859 
H     0.3585370    0.2118761   -4.5817956 
H     1.7588592    1.3160070   -4.4275872 
H     1.0588661    3.3000228   -6.6522452 
H     1.4969250    3.8031612   -4.9915727 
H    -0.0082102    4.4048002   -5.7393664 
H    -1.8504253    1.0799135   -5.6285172 
H    -0.8905722    1.6574323   -7.0264251 
H    -1.9766752    2.7776234   -6.1683021 
H     0.6273694    1.3170965   -2.5553850 
H    -2.0658161    4.1083047   -4.4509189 
H    -4.7561027    5.9144177   -0.8161947 
H    -3.1810368    5.5189325   -0.0892275 
H    -4.3438827    4.2117722   -0.4594392 
H    -5.3026123    5.4310710   -3.1537709 
H    -4.1565848    4.6307831   -4.2568245 
H    -4.9294693    3.6933844   -2.9497953 
H    -1.9209538    6.6975263   -1.9763524 
H    -2.3446316    6.3796172   -3.6813692 
H    -3.5163355    7.2023733   -2.6131527 
H    -2.1584398    3.5610081   -0.1696002 
H     1.8848757    1.4241477    2.3762619 
H     4.2798078    1.4927884    3.2188964 
H     4.3546434    1.2573907    4.9841944 
H     2.8959288    0.7707446    4.0956233 
H     2.8721771    2.6245001    6.5466557 
H     1.8430660    3.9335859    5.8923349 
H     1.4170320    2.2259382    5.5820746 
H     4.9036387    3.9868759    3.6348213 
H     3.9814213    4.9394332    4.8324872 
H     4.9686968    3.5630395    5.3704180 
H     2.2684977    5.4822034    3.7951575 
H    -0.0672833    4.6374664    0.2713217 
H     0.0303624    6.8132006    4.0259639 
H    -0.6425886    8.1072290    2.9904487 
H    -1.2603214    6.4314335    2.8515736 
H     2.3726111    7.4770313    3.2014470 
H     1.6933218    8.6901314    2.0946977 
H     2.7592327    7.4023409    1.4600044 
H    -0.8267050    6.6055693    0.3553609 
H    -0.0493735    8.1972772    0.4971693 
H     0.8330152    6.8420944   -0.2664852 
H    -0.7532022    2.0281762    3.0451380 
H    -2.5923071    1.0487212    4.3985835 
H    -4.2301576   -0.5106668    3.3666804 
H    -5.6036889    1.4159172   -2.4796513 
H    -5.8587197    2.2166524   -0.9106753 
H    -5.9407377   -0.8263842   -1.3944305 
H    -7.3593102    0.2246477   -1.2722695 
H    -5.9166682    0.8081094    1.1305332 
H    -7.3660817   -0.1996577    1.0075875 
H    -5.9255620   -2.2371777    0.6535151 
H    -5.6603845   -1.4383307    2.2216141 
H    -4.2284292    0.3905787   -3.5995541 
H    -2.6216606   -1.2151895   -4.6110569 
H    -0.7870945   -2.1886280   -3.2582504 
H     0.2417235   -4.6983693   -0.1020085 
H     1.3394044   -6.6142801    0.7649012 
H     0.7000712   -8.2060591    0.2650494 
H    -0.3157616   -6.7550981    0.1027556 
H     3.0922833   -7.5831230   -2.5064742 
H     3.3843580   -7.1201047   -0.8079459 
H     2.5919998   -8.6749412   -1.1944648 
H     0.2223338   -8.7097612   -2.1807078 
H     0.6931938   -7.5480197   -3.4551147 
H    -0.6866422   -7.1798702   -2.3820830 
H     2.5297714   -5.8447960   -3.5744135 
H     1.5916477   -1.6925290   -2.8811381 
H     1.1182195   -3.6214196   -5.9493478 
H     1.2509596   -1.9598957   -5.3068598 
H     2.3180924   -2.4858281   -6.6389869 
H     4.2145244   -4.1098718   -6.2074065 
H     3.0235654   -5.2934598   -5.6207409 
H     4.4365516   -4.8659182   -4.6065137 
H     4.6134444   -2.4578283   -3.6077532 
H     3.3520932   -1.2487494   -3.9955109 
H     4.4203113   -1.8567271   -5.2806027 
H     0.7788802   -1.4080199    2.3324655 
H    -1.8399977   -2.8335641    6.0062756 
H    -1.7399717   -1.1323900    5.4713417 
H    -0.7433920   -1.7095952    6.8429202 
H     1.8453822   -1.3488054    4.1999301 
H     0.4572911   -0.2374466    4.4013712 
H     1.3166865   -0.8763208    5.8323463 
H     1.5975808   -3.8369216    4.7277978 
H     0.1132886   -4.4446222    5.5125489 
H     1.2073112   -3.3524490    6.4095266 
H    -2.0128696   -4.0674081    4.2791135 
H    -2.1135968   -3.5769659   -0.0068029 
H    -3.5874735   -7.1332456    2.5346555 
H    -2.3886225   -6.3217163    3.5808724 
H    -1.9724888   -6.7102161    1.8894133 
H    -4.2964149   -4.1845897    0.2844910 
H    -4.7606191   -5.8651671    0.6828440 
H    -3.1684447   -5.5342639   -0.0415188 
H    -5.3112200   -5.2832023    3.0039339 
H    -4.1401094   -4.4968275    4.0915028 
H    -4.8680944   -3.5677335    2.7536289 
