203
Energy =
C     2.3563678    1.3212198    2.6477041 
C     1.1777157    2.0204284    3.0623162 
C     0.0616886    1.2968413    3.5424882 
H     1.0817170    3.0941626    2.8580400 
Pd    0.6217012    0.6630943    1.4272530 
P    -1.5118676    0.4696824    0.5043550 
P     1.6331663   -0.6521313   -0.1994590 
H     2.5888672    0.3841576    3.1726331 
H     0.2617039    0.2723967    3.8945580 
C     5.7758529    3.1657925    0.7861463 
C     4.5114029    3.7680994    0.6730894 
C     3.3903712    3.1753704    1.2626975 
C     3.5092520    1.9697980    1.9938983 
C     4.7855752    1.3730869    2.0920182 
C     5.9057711    1.9637092    1.4965673 
H     6.6508603    3.6311941    0.3207417 
H     4.3996272    4.7038685    0.1160588 
H     2.4086615    3.6466579    1.1427696 
H     4.8961451    0.4338857    2.6408972 
H     6.8838929    1.4807037    1.5922271 
C    -3.7990093    2.7167340    4.7721251 
C    -3.4750399    1.3540154    4.8475639 
C    -2.2109502    0.9152088    4.4431218 
C    -1.2458343    1.8252405    3.9507773 
C    -1.5920537    3.1935704    3.8710643 
C    -2.8551999    3.6322075    4.2779431 
H    -4.7833974    3.0656073    5.0999020 
H    -4.2061993    0.6320711    5.2259043 
H    -1.9623211   -0.1490480    4.5024531 
H    -0.8688539    3.9215471    3.4928547 
H    -3.1072187    4.6948833    4.2072354 
C    -0.0144703    5.5763643    0.4791529 
C    -1.5409791    5.7984162    0.5340759 
C    -1.8437084    6.7477593    1.7211522 
C    -1.9964495    6.4609519   -0.7917901 
C    -2.3109162    4.4751687    0.7130385 
C    -1.6850656    3.2213452    0.6249216 
C    -3.6983894    4.4928492    0.9633439 
C    -4.4569343    3.3257836    1.1741493 
C    -5.9789771    3.4127813    1.4023711 
C    -6.6453044    3.7212201    0.0350937 
C    -6.3245356    4.5424608    2.4033044 
C    -6.5524569    2.0865694    1.9492826 
C    -3.7917741    2.0867322    1.0981778 
C    -2.4242925    2.0329673    0.7955897 
C    -2.4771389   -0.9372717    1.1515758 
C    -3.7488348   -1.2601888    0.6477998 
C    -4.4755073   -2.3311625    1.1975008 
C    -5.9045362   -2.6740314    0.7330965 
C    -6.2975811   -1.8899176   -0.5373621 
C    -6.8883462   -2.3035161    1.8738862 
C    -6.0195732   -4.1878365    0.4253209 
C    -3.8680478   -3.0776212    2.2279993 
C    -2.5705008   -2.8136673    2.7112718 
C    -1.8873619   -1.7199159    2.1583762 
C    -1.9525292   -3.6910227    3.8167681 
C    -2.7547615   -3.4824543    5.1269686 
C    -2.0184825   -5.1815895    3.3983131 
C    -0.4732810   -3.3287251    4.0741564 
C    -1.5748624    0.2841580   -1.3296852 
C    -2.0820412    1.3137128   -2.1475176 
C    -2.1039781    1.1522240   -3.5374634 
C    -1.6224457   -0.0200142   -4.1304103 
C    -1.0856594   -0.9094332   -1.9081638 
C    -1.1203532   -1.0507652   -3.3192282 
C    -0.6263783   -2.0954086   -1.1216494 
C    -1.4631746   -3.2418090   -1.1737958 
O    -2.6505860   -3.0681167   -1.8257511 
C    -3.2781183   -4.1801869   -2.4853303 
C    -2.5646615   -4.5488183   -3.7874461 
C    -2.5207842   -3.3992152   -4.8273473 
C    -1.1352264   -2.7811092   -5.0248154 
O    -0.6082572   -2.2204780   -3.8089975 
C    -1.0809102   -4.4424402   -0.5546305 
C     0.1486888   -4.5095873    0.1093272 
C     0.9870107   -3.3916638    0.1806320 
C     0.6038985   -2.1764201   -0.4240716 
C     1.8575827    0.0603837   -1.8626512 
C     1.7321110    1.4432997   -2.0441030 
C     1.9727186    2.0237481   -3.3075690 
C     1.8031051    3.5446251   -3.4955110 
C     2.2223582    4.0122218   -4.9043705 
C     2.6737802    4.2894345   -2.4537361 
C     0.3128368    3.9106458   -3.2791776 
C     2.3569760    1.1668289   -4.3523270 
C     2.4899185   -0.2326900   -4.1967765 
C     2.2197263   -0.7791090   -2.9355758 
C     2.9465703   -1.0972410   -5.3867663 
C     4.3921377   -0.6880352   -5.7720706 
C     2.0011006   -0.8629643   -6.5915857 
C     2.9358093   -2.6009980   -5.0401605 
C     3.2896716   -1.2449867    0.3215827 
C     4.4133610   -1.1127112   -0.5015153 
C     5.6855131   -1.5381828   -0.0636659 
C     6.8869878   -1.4202974   -1.0219822 
C     6.7281854   -2.5041999   -2.1216027 
C     8.2302883   -1.6363534   -0.2937597 
C     6.9117027   -0.0213325   -1.6889664 
C     5.7824874   -2.1018758    1.2186776 
C     4.6683435   -2.2414619    2.0803924 
C     3.4248010   -1.7896245    1.6176622 
C     4.8504628   -2.8653425    3.4781538 
C     5.3640994   -4.3193981    3.3161825 
C     3.5280836   -2.9012034    4.2732641 
C     5.8829755   -2.0368726    4.2849434 
H     0.5014319    6.5468093    0.3815334 
H     0.2850888    4.9565494   -0.3820974 
H     0.3550684    5.0931877    1.4017349 
H    -1.2894225    7.6951932    1.6009671 
H    -1.5375261    6.2915724    2.6792549 
H    -2.9161366    6.9962774    1.7897554 
H    -1.7841250    5.8007825   -1.6507788 
H    -1.4649618    7.4168108   -0.9482906 
H    -3.0799963    6.6712373   -0.7831195 
H    -0.6118370    3.1454495    0.4201597 
H    -4.2069455    5.4606143    1.0077938 
H    -7.7423083    3.7915172    0.1472546 
H    -6.4211448    2.9258810   -0.6976927 
H    -6.2799214    4.6777129   -0.3781723 
H    -7.4148137    4.5731953    2.5740917 
H    -5.8273192    4.3773062    3.3737240 
H    -6.0240067    5.5360757    2.0297661 
H    -6.4497364    1.2624370    1.2220060 
H    -6.0501353    1.7846012    2.8850247 
H    -7.6293547    2.2046224    2.1589320 
H    -4.3376337    1.1577444    1.2686142 
H    -4.1540311   -0.6806893   -0.1844423 
H    -5.5897204   -2.0797468   -1.3632995 
H    -7.3043312   -2.1971306   -0.8688303 
H    -6.3293314   -0.8011607   -0.3555682 
H    -7.9275461   -2.5318550    1.5762780 
H    -6.6648674   -2.8691420    2.7952777 
H    -6.8240388   -1.2271209    2.1115527 
H    -5.3058556   -4.4834284   -0.3620498 
H    -5.8206507   -4.8082505    1.3156355 
H    -7.0393980   -4.4276699    0.0762126 
H    -4.4269840   -3.9113832    2.6655181 
H    -0.8735825   -1.4671076    2.4808496 
H    -3.8158943   -3.7577539    4.9975867 
H    -2.3376634   -4.1053710    5.9383184 
H    -2.7153910   -2.4263781    5.4486112 
H    -3.0579871   -5.5223589    3.2539825 
H    -1.5647182   -5.8172875    4.1792466 
H    -1.4711337   -5.3434267    2.4540654 
H    -0.3600173   -2.2951754    4.4484987 
H    -0.0506965   -4.0014084    4.8401121 
H     0.1317828   -3.4326801    3.1561395 
H    -2.4689739    2.2325898   -1.7007239 
H    -2.5041817    1.9513551   -4.1698771 
H    -1.6379472   -0.1280415   -5.2179061 
H    -4.3030275   -3.8281192   -2.6865467 
H    -3.3536967   -5.0513376   -1.8090273 
H    -3.0929438   -5.4230865   -4.2091927 
H    -1.5402422   -4.8905578   -3.5476869 
H    -2.8490197   -3.7690642   -5.8157186 
H    -3.2299288   -2.5983537   -4.5450650 
H    -1.1511324   -2.0278024   -5.8336003 
H    -0.3971991   -3.5500842   -5.3058024 
H    -1.7330849   -5.3185096   -0.5888666 
H     0.4598488   -5.4492861    0.5774682 
H     1.9499898   -3.4750338    0.6891416 
H     1.4407100    2.0623042   -1.1881830 
H     3.2821158    3.7814031   -5.1116024 
H     2.0952218    5.1057240   -4.9846509 
H     1.6033548    3.5480743   -5.6922510 
H     2.3795561    4.0351405   -1.4228235 
H     3.7397724    4.0283182   -2.5708243 
H     2.5660706    5.3821091   -2.5762337 
H     0.1719241    5.0043229   -3.3493104 
H    -0.0481592    3.5789788   -2.2907405 
H    -0.3214523    3.4270807   -4.0408567 
H     2.5633982    1.5968119   -5.3353904 
H     2.2834634   -1.8562341   -2.7654797 
H     4.4486671    0.3744392   -6.0660075 
H     5.0812836   -0.8431724   -4.9229413 
H     4.7495015   -1.2954944   -6.6228308 
H     2.3068542   -1.4920140   -7.4463571 
H     2.0146678    0.1878334   -6.9280251 
H     0.9623762   -1.1209306   -6.3240937 
H     1.9333750   -2.9320451   -4.7191039 
H     3.6518988   -2.8386816   -4.2336756 
H     3.2279768   -3.1902710   -5.9264288 
H     4.3028480   -0.6693446   -1.4935008 
H     5.7857864   -2.3658371   -2.6808402 
H     6.7162931   -3.5155843   -1.6791635 
H     7.5651571   -2.4489873   -2.8407681 
H     8.3640066   -0.9109344    0.5287244 
H     8.3160602   -2.6547039    0.1237218 
H     9.0646862   -1.5020753   -1.0033752 
H     6.9573920    0.7799528   -0.9324802 
H     6.0202682    0.1565772   -2.3148091 
H     7.7965840    0.0648554   -2.3438423 
H     6.7579950   -2.4430775    1.5742287 
H     2.5415808   -1.8492171    2.2602495 
H     5.5013590   -4.7894986    4.3062923 
H     6.3332543   -4.3520329    2.7895777 
H     4.6435990   -4.9270779    2.7407639 
H     3.1195869   -1.8871628    4.4362148 
H     3.7030578   -3.3500947    5.2659802 
H     2.7580178   -3.5072050    3.7644272 
H     6.0382899   -2.4866845    5.2815903 
H     6.8621480   -1.9967959    3.7780810 
H     5.5312694   -0.9999296    4.4298635 
