203
Energy =
C     2.4572158    1.3816973    2.5037038 
C     1.3023006    2.0049564    3.0707360 
C     0.2555220    1.2310225    3.6191229 
H     1.1437530    3.0812648    2.9244145 
Pd    0.6411840    0.6786543    1.4367493 
P    -1.5234885    0.3248197    0.6483408 
P     1.6333643   -0.4761788   -0.3301768 
H     2.7975882    0.4412883    2.9570802 
H     0.4875288    0.1851646    3.8776581 
C     5.5110400    3.5252402    0.3528606 
C     4.1958579    4.0205174    0.3774379 
C     3.1959992    3.3303741    1.0688792 
C     3.4870606    2.1271923    1.7545003 
C     4.8095736    1.6348775    1.7103005 
C     5.8115210    2.3309643    1.0237283 
H     6.2935473    4.0676627   -0.1877467 
H     3.9502428    4.9503829   -0.1463399 
H     2.1718376    3.7204211    1.0656099 
H     5.0498888    0.6964323    2.2203672 
H     6.8326461    1.9360071    1.0159904 
C    -3.3934798    2.6777430    5.3698046 
C    -3.2571105    1.3283592    5.0090484 
C    -2.0641765    0.8706848    4.4437195 
C    -0.9839148    1.7538087    4.2151219 
C    -1.1295135    3.1068168    4.5954504 
C    -2.3215951    3.5611248    5.1697841 
H    -4.3257916    3.0377454    5.8170093 
H    -4.0851762    0.6299377    5.1648528 
H    -1.9714890   -0.1799595    4.1521982 
H    -0.2934213    3.8024780    4.4740244 
H    -2.4107360    4.6081177    5.4766978 
C    -6.9663666    1.6856577    0.6563960 
C    -6.3582777    2.3352445    1.9270484 
C    -7.1241637    3.6406603    2.2254193 
C    -6.5396077    1.3764504    3.1311910 
C    -4.8556455    2.5818196    1.6844651 
C    -4.0117755    1.4822919    1.4256632 
C    -4.2832784    3.8656577    1.6752126 
C    -2.9085899    4.0915880    1.4387448 
C    -2.3508729    5.5270439    1.3689554 
C    -0.8119498    5.5526640    1.5015941 
C    -2.9451300    6.4087048    2.4936689 
C    -2.7430548    6.1193612   -0.0109386 
C    -2.0980491    2.9723978    1.1996432 
C    -2.6493945    1.6749914    1.1695518 
C    -2.2535415   -1.2662995    1.1652552 
C    -3.4625476   -1.7425232    0.6207506 
C    -4.0331047   -2.9295532    1.1035229 
C    -5.3830088   -3.4609706    0.5848210 
C    -5.2213399   -4.9287541    0.1155298 
C    -5.9135027   -2.6243627   -0.5984508 
C    -6.4165585   -3.3953202    1.7394740 
C    -3.3443774   -3.6342206    2.1187390 
C    -2.1163139   -3.2055323    2.6505053 
C    -1.5830335   -2.0008245    2.1529507 
C    -1.3480663   -3.9775144    3.7415539 
C    -1.1974323   -3.0719010    4.9912870 
C    -2.0724117   -5.2737849    4.1582908 
C     0.0586655   -4.3487012    3.2074670 
C    -1.6397143    0.3782219   -1.1935274 
C    -2.1945822    1.5053684   -1.8344340 
C    -2.2142622    1.5759354   -3.2313079 
C    -1.6852825    0.5394053   -4.0083025 
C    -1.1008215   -0.6810601   -1.9603793 
C    -1.1365546   -0.5881686   -3.3766108 
C    -0.5469369   -1.9426559   -1.3798852 
C    -1.2851932   -3.1326182   -1.6104174 
O    -2.4929034   -2.9670605   -2.2297917 
C    -3.0167519   -4.0105440   -3.0707620 
C    -2.2959801   -4.0793845   -4.4176467 
C    -2.3855185   -2.7726725   -5.2471440 
C    -1.0645777   -2.0086576   -5.3458559 
O    -0.5643527   -1.6301488   -4.0513239 
C    -0.7954975   -4.3769480   -1.1818262 
C     0.4429419   -4.4425959   -0.5350134 
C     1.1896944   -3.2834608   -0.2967566 
C     0.6992903   -2.0289301   -0.7117946 
C     1.7812733    0.4059470   -1.9190835 
C     2.2039379   -0.2872561   -3.0680175 
C     2.4057237    0.4026713   -4.2743424 
C     2.9442286   -0.2941738   -5.5387072 
C     3.0184386   -1.8254903   -5.3600738 
C     4.3710526    0.2423294   -5.8255229 
C     2.0249467    0.0160321   -6.7461829 
C     2.1290094    1.7851143   -4.2904434 
C     1.6614477    2.4950533   -3.1670025 
C     1.5074368    1.7818730   -1.9654304 
C     1.3667475    4.0033173   -3.2748254 
C     0.4185892    4.2706131   -4.4704580 
C     2.7053332    4.7551499   -3.4917340 
C     0.6920084    4.5434077   -1.9965832 
C     3.3257389   -1.0382017    0.1061737 
C     3.5070104   -1.6578769    1.3565730 
C     4.7758104   -2.0967053    1.7719090 
C     4.9232933   -2.8056362    3.1333153 
C     4.2059417   -4.1786410    3.0483832 
C     4.2656253   -1.9502713    4.2464848 
C     6.4008565   -3.0392458    3.5113273 
C     5.8622504   -1.8829722    0.8970247 
C     5.7149311   -1.2581641   -0.3572064 
C     4.4276199   -0.8317229   -0.7360364 
C     6.8879577   -1.0978576   -1.3455014 
C     6.8537373    0.2926487   -2.0270401 
C     6.7362274   -2.1954246   -2.4331548 
C     8.2564217   -1.2639333   -0.6504734 
H    -8.0464486    1.5028547    0.7988369 
H    -6.4873016    0.7178238    0.4269443 
H    -6.8386904    2.3441852   -0.2204506 
H    -8.1897076    3.4139171    2.4018132 
H    -7.0708839    4.3496455    1.3806515 
H    -6.7346046    4.1438378    3.1281224 
H    -6.0277114    0.4114775    2.9692628 
H    -7.6120835    1.1668377    3.2917427 
H    -6.1337904    1.8268327    4.0528326 
H    -4.4220389    0.4690681    1.4235340 
H    -4.9254728    4.7295673    1.8570186 
H    -0.4534208    6.5961930    1.4938923 
H    -0.3147066    5.0298384    0.6677415 
H    -0.4870623    5.0873194    2.4482872 
H    -2.5050876    7.4202904    2.4510011 
H    -4.0381894    6.5231428    2.3999026 
H    -2.7296685    5.9780977    3.4861177 
H    -2.3147703    5.5164304   -0.8312092 
H    -3.8397006    6.1373051   -0.1365030 
H    -2.3676149    7.1541012   -0.1090070 
H    -1.0251260    3.0888603    1.0129299 
H    -3.9342020   -1.1850147   -0.1912114 
H    -4.9086313   -5.5932451    0.9389798 
H    -6.1798642   -5.3120419   -0.2767863 
H    -4.4652907   -5.0000932   -0.6845937 
H    -6.8563417   -3.0605788   -0.9705546 
H    -6.1269518   -1.5830804   -0.2994220 
H    -5.1904348   -2.6005862   -1.4314751 
H    -6.1010679   -4.0083169    2.6016223 
H    -6.5448510   -2.3554526    2.0894859 
H    -7.3984380   -3.7689031    1.3978658 
H    -3.7887168   -4.5580799    2.4969407 
H    -0.6221209   -1.6237972    2.5213915 
H    -2.1840350   -2.7581898    5.3745672 
H    -0.6698055   -3.6138530    5.7960862 
H    -0.6145632   -2.1613406    4.7658805 
H    -3.0703605   -5.0661865    4.5829922 
H    -1.4836265   -5.7969300    4.9312785 
H    -2.1931476   -5.9645788    3.3052138 
H     0.6305791   -3.4522336    2.9103956 
H     0.6368903   -4.8785716    3.9852633 
H    -0.0174879   -5.0017284    2.3219447 
H    -2.6222146    2.3195591   -1.2443419 
H    -2.6525784    2.4502413   -3.7233905 
H    -1.6952132    0.6141185   -5.0984209 
H    -4.0765525   -3.7396483   -3.2055350 
H    -2.9889538   -4.9874042   -2.5546346 
H    -2.7431805   -4.9193152   -4.9797209 
H    -1.2384847   -4.3514811   -4.2409557 
H    -2.7061362   -2.9981589   -6.2804542 
H    -3.1537054   -2.0992103   -4.8229496 
H    -1.1634890   -1.1284820   -6.0064958 
H    -0.2705114   -2.6481956   -5.7645027 
H    -1.3728860   -5.2891462   -1.3511208 
H     0.8341209   -5.4135751   -0.2139949 
H     2.1618658   -3.3622598    0.1951202 
H     2.3677370   -1.3653957   -3.0061256 
H     3.7358827   -2.1105571   -4.5704507 
H     3.3578766   -2.2954255   -6.2991555 
H     2.0333210   -2.2479161   -5.0972252 
H     4.3665452    1.3342575   -5.9881860 
H     5.0471078    0.0277690   -4.9791722 
H     4.7874113   -0.2361214   -6.7300490 
H     2.3968083   -0.4976519   -7.6503424 
H     1.9864669    1.0957733   -6.9697815 
H     0.9951634   -0.3274600   -6.5512892 
H     2.2818133    2.3345590   -5.2251024 
H     1.1633288    2.2756995   -1.0528981 
H     0.8663124    3.9604730   -5.4300145 
H    -0.5307464    3.7227638   -4.3436554 
H     0.1924653    5.3492859   -4.5422049 
H     2.5299803    5.8439980   -3.5598317 
H     3.2008111    4.4316656   -4.4237004 
H     3.3993409    4.5633573   -2.6550127 
H     1.3545478    4.4531164   -1.1191317 
H    -0.2478131    4.0051739   -1.7795830 
H     0.4505601    5.6131937   -2.1203785 
H     2.6389875   -1.7956860    2.0120500 
H     4.6602820   -4.8088043    2.2639839 
H     3.1342586   -4.0586561    2.8115363 
H     4.2836069   -4.7146937    4.0113701 
H     4.7286500   -0.9491284    4.3029549 
H     3.1811476   -1.8200472    4.0813010 
H     4.3902083   -2.4410213    5.2276810 
H     6.9620630   -2.0895327    3.5634260 
H     6.9085770   -3.7044171    2.7913529 
H     6.4591861   -3.5207024    4.5025739 
H     6.8546477   -2.2147544    1.2040254 
H     4.2823626   -0.3289171   -1.6941041 
H     7.7074297    0.3885426   -2.7206209 
H     6.9162442    1.1045340   -1.2840431 
H     5.9334224    0.4465335   -2.6155386 
H     6.7602655   -3.2030793   -1.9827685 
H     7.5562970   -2.1240798   -3.1702133 
H     5.7783992   -2.0858991   -2.9722223 
H     9.0673328   -1.0951664   -1.3796816 
H     8.3811921   -0.5367948    0.1718432 
H     8.3933448   -2.2791524   -0.2393755 
