104
Energy =
C    -0.1237016   -0.6484894    3.7521848 
C     1.2746168   -0.6392596    3.4576653 
C     1.9601297    0.5653997    3.1814193 
H     1.7923884   -1.5943621    3.3005620 
Pd    0.2318579    0.2303742    1.7314628 
P     1.2910925    0.8835852   -0.2643800 
P    -1.7849884   -0.1278263    0.6210366 
H    -0.5375435    0.2256147    4.2763559 
H     1.5116272    1.4963303    3.5627338 
C    -2.4280790   -4.2697092    4.1120298 
C    -1.2947027   -4.2404356    3.2819709 
C    -0.5383035   -3.0704342    3.1649928 
C    -0.8935509   -1.9014760    3.8796155 
C    -2.0289106   -1.9512287    4.7165277 
C    -2.7892657   -3.1213812    4.8303307 
H    -3.0249081   -5.1835033    4.1967566 
H    -1.0059611   -5.1327537    2.7162244 
H     0.3228245   -3.0542923    2.4876043 
H    -2.3167783   -1.0594160    5.2827898 
H    -3.6709052   -3.1338318    5.4789943 
C     6.1208638    0.9603171    2.1721657 
C     5.4160979    2.0271336    2.7483447 
C     4.0583229    1.8867274    3.0566555 
C     3.3808583    0.6715689    2.8100626 
C     4.1032801   -0.3939803    2.2244469 
C     5.4567310   -0.2489577    1.9066664 
H     7.1821541    1.0700149    1.9263026 
H     5.9231424    2.9754019    2.9525008 
H     3.5116667    2.7256776    3.5000811 
H     3.6029689   -1.3407868    2.0030709 
H     5.9974388   -1.0838859    1.4490896 
C     2.0337155    3.3819816    0.6876756 
C     2.8756629    4.4830295    0.8851616 
C     4.1947115    4.4506596    0.4054954 
C     4.6684626    3.3097499   -0.2564480 
C     3.8245781    2.2099121   -0.4711712 
C     2.4937898    2.2474181   -0.0171667 
C     2.1825250   -0.5418819   -1.0043541 
C     2.7964257   -0.4263120   -2.2696310 
C     3.4047297   -1.5424377   -2.8580260 
C     3.3967407   -2.7804986   -2.1960106 
C     2.7770351   -2.9025731   -0.9439208 
C     2.1717262   -1.7875827   -0.3500677 
C     0.2270585    1.4475836   -1.6687736 
C     0.2781289    2.7859186   -2.1066524 
C    -0.5631319    3.2365933   -3.1325895 
C    -1.4605028    2.3578156   -3.7478215 
C    -0.6710466    0.5385608   -2.2911873 
C    -1.4951678    1.0185569   -3.3352540 
C    -0.7795247   -0.9174669   -1.9485083 
C    -0.4030791   -1.9478454   -2.8638513 
O     0.0004279   -1.8298469   -4.1613329 
C     0.4065890   -0.6320426   -4.8397307 
C    -0.6756277   -0.0937323   -5.7984072 
C    -2.1286686   -0.2094967   -5.3110846 
O    -2.3194980    0.0923065   -3.9100575 
C    -0.4426936   -3.3007593   -2.4602347 
C    -0.8620690   -3.6656122   -1.1851184 
C    -1.2951074   -2.6812333   -0.2893335 
C    -1.2901238   -1.3286702   -0.6812726 
C    -3.2363271   -0.8124510    1.5242315 
C    -3.6042636   -0.1044634    2.6868915 
C    -4.7847122   -0.4224641    3.3676394 
C    -5.6007302   -1.4657695    2.9056737 
C    -5.2393697   -2.1746379    1.7511945 
C    -4.0693245   -1.8446888    1.0514391 
C    -2.6119398    1.3293891   -0.1397999 
C    -2.2395992    2.6287281    0.2463036 
C    -2.9562287    3.7361190   -0.2308626 
C    -4.0445848    3.5465076   -1.0937346 
C    -4.4172459    2.2487821   -1.4822444 
C    -3.7103964    1.1406566   -1.0034189 
H     1.0093921    3.4002117    1.0793009 
H     2.5051863    5.3629164    1.4213049 
H     4.8570007    5.3079359    0.5641672 
H     5.7057816    3.2670689   -0.6035858 
H     4.2142968    1.3200470   -0.9726998 
H     2.7836705    0.5327003   -2.7992550 
H     3.8784730   -1.4485706   -3.8407708 
H     3.8641811   -3.6531176   -2.6636405 
H     2.7496549   -3.8715445   -0.4353195 
H     1.6486425   -1.8838666    0.6081086 
H     0.9802313    3.4855158   -1.6462275 
H    -0.5162195    4.2829901   -3.4507091 
H    -2.1313102    2.6943979   -4.5437111 
H     1.2954119   -0.9261234   -5.4227512 
H     0.7233938    0.1339503   -4.1192628 
H    -0.6287456   -0.6347085   -6.7604728 
H    -0.4202888    0.9589238   -6.0174720 
H    -2.7830009    0.4342637   -5.9299470 
H    -2.4822331   -1.2482045   -5.4049651 
H    -0.1201219   -4.0455120   -3.1930107 
H    -0.8637238   -4.7194727   -0.8884959 
H    -1.6363804   -2.9623829    0.7102705 
H    -2.9646664    0.7088196    3.0509028 
H    -5.0623924    0.1384102    4.2661037 
H    -6.5199740   -1.7226566    3.4421040 
H    -5.8780155   -2.9832404    1.3806438 
H    -3.8200616   -2.3842425    0.1331880 
H    -1.3865318    2.7682158    0.9211671 
H    -2.6631483    4.7465754    0.0723935 
H    -4.6057963    4.4106052   -1.4644430 
H    -5.2635291    2.0991377   -2.1605494 
H    -4.0009843    0.1310195   -1.3122691 
