104
Energy =
C    -2.5532690    2.6419219   -0.1181891 
C    -1.6806053    3.2947868   -1.0362434 
C    -1.2589471    2.6576645   -2.2245963 
H    -1.2318132    4.2559169   -0.7592128 
Pd   -0.6486829    1.4516769   -0.3683849 
P     1.2513264    0.3250152   -1.1044024 
P    -1.0772470   -0.1977805    1.2731760 
H    -3.2383523    1.8884565   -0.5306813 
H    -1.8454067    1.7860369   -2.5552078 
C    -3.9629241    4.3555247    3.5672927 
C    -2.8502549    4.9198897    2.9228563 
C    -2.3621873    4.3596086    1.7383262 
C    -2.9887889    3.2305671    1.1593604 
C    -4.0978204    2.6649325    1.8297991 
C    -4.5792932    3.2201969    3.0195814 
H    -4.3429795    4.7950520    4.4951326 
H    -2.3590510    5.8012479    3.3484319 
H    -1.4857641    4.8089890    1.2596416 
H    -4.5848495    1.7800899    1.4050960 
H    -5.4386935    2.7652191    3.5220073 
C     1.1209258    4.2955672   -5.4023164 
C     0.5889504    3.0007402   -5.4957889 
C    -0.1703337    2.4812930   -4.4433005 
C    -0.4099833    3.2385025   -3.2720741 
C     0.1442216    4.5377300   -3.1885415 
C     0.8950614    5.0604876   -4.2455508 
H     1.7101937    4.7089676   -6.2271008 
H     0.7664112    2.3960274   -6.3904401 
H    -0.5941986    1.4738978   -4.5227373 
H    -0.0259794    5.1533942   -2.2995020 
H     1.3044718    6.0732098   -4.1705830 
C    -2.8364809   -0.1850448    3.5259608 
C    -3.2696962    0.3241855    4.7583782 
C    -2.6587978    1.4602671    5.3083567 
C    -1.6217351    2.1037666    4.6155167 
C    -1.1915777    1.6059337    3.3803009 
C    -1.7819018    0.4448329    2.8374880 
C    -2.2693938   -1.4322429    0.6069170 
C    -2.9700753   -1.1747178   -0.5874184 
C    -3.8529142   -2.1290053   -1.1096478 
C    -4.0411499   -3.3489215   -0.4433549 
C    -3.3382973   -3.6168518    0.7412470 
C    -2.4515977   -2.6679811    1.2643801 
C     0.3122662   -1.2805260    1.8423581 
C     0.7445656   -1.2366470    3.1819498 
C     1.7802929   -2.0738403    3.6158580 
C     2.3965539   -2.9638030    2.7297757 
C     0.9321328   -2.1688423    0.9284337 
C     1.9696924   -3.0098165    1.3938813 
C     0.4933719   -2.3417327   -0.4888041 
C    -0.0765462   -3.5936644   -0.8388313 
O    -0.1743517   -4.5289193    0.1527807 
C     0.4570555   -5.8180812   -0.0194354 
C     1.5548439   -5.9862465    1.0364155 
C     2.8304022   -5.1831875    0.7571572 
O     2.5548739   -3.8046091    0.4444323 
C    -0.5891711   -3.8254838   -2.1233619 
C    -0.5421339   -2.8048115   -3.0814716 
C     0.0425632   -1.5726543   -2.7703435 
C     0.5968249   -1.3469496   -1.4901989 
C     2.2001642    0.9118753   -2.5632785 
C     2.5718036    2.2723900   -2.5369400 
C     3.4287194    2.7887631   -3.5142317 
C     3.9108410    1.9564305   -4.5362843 
C     3.5434325    0.6037219   -4.5685988 
C     2.6972362    0.0754833   -3.5822100 
C     2.6323725    0.1597228    0.0978335 
C     2.6631475    0.9727928    1.2444633 
C     3.7616989    0.9165543    2.1140496 
C     4.8286079    0.0492775    1.8397689 
C     4.7995509   -0.7627907    0.6939052 
C     3.7096563   -0.7053622   -0.1811600 
H    -3.3222795   -1.0692505    3.1033332 
H    -4.0899758   -0.1701124    5.2891910 
H    -3.0008042    1.8549527    6.2705663 
H    -1.1604466    3.0061705    5.0280717 
H    -0.3965950    2.1199937    2.8275426 
H    -2.7962406   -0.2364776   -1.1245627 
H    -4.3849607   -1.9238143   -2.0442373 
H    -4.7279926   -4.0964433   -0.8539470 
H    -3.4656227   -4.5762803    1.2525271 
H    -1.8719334   -2.9022227    2.1629409 
H     0.2660807   -0.5578806    3.8922635 
H     2.1113027   -2.0297876    4.6584438 
H     3.2131196   -3.6075488    3.0684946 
H     0.8603892   -5.9069049   -1.0454174 
H    -0.3244913   -6.5856922    0.1172338 
H     1.8323111   -7.0548922    1.1049191 
H     1.1304165   -5.7013286    2.0163020 
H     3.5379936   -5.2652900    1.6043527 
H     3.3415056   -5.5587168   -0.1443134 
H    -1.0524988   -4.7901822   -2.3503605 
H    -0.9690313   -2.9703027   -4.0759073 
H     0.0746209   -0.7815858   -3.5256830 
H     2.1931257    2.9231616   -1.7405815 
H     3.7110660    3.8453769   -3.4843165 
H     4.5759974    2.3622564   -5.3054910 
H     3.9266306   -0.0513397   -5.3581034 
H     2.4435750   -0.9887270   -3.6017522 
H     1.8201121    1.6413076    1.4566990 
H     3.7814973    1.5484806    3.0079817 
H     5.6859048    0.0050683    2.5196425 
H     5.6296335   -1.4444021    0.4813953 
H     3.6866034   -1.3456799   -1.0691127 
