104
Energy =
C     1.9055189   -1.5887470    2.6342952 
C     1.4390127   -0.4517339    3.3318241 
C     0.0400694   -0.2839804    3.5868370 
H     2.1307368    0.3775096    3.5243485 
Pd    0.3794738   -0.4153638    1.4020168 
P    -1.7777250    0.0414282    0.6128018 
P     1.4260779   -0.3320532   -0.6822354 
H     1.2269644   -2.4559423    2.5924430 
H    -0.5540681   -1.1917028    3.7582129 
C     5.9197428   -2.5618377    1.4582866 
C     5.6808624   -1.3915699    2.1968441 
C     4.3813883   -1.0519050    2.5838336 
C     3.2899794   -1.8841758    2.2448969 
C     3.5475064   -3.0630309    1.5053592 
C     4.8467267   -3.3966334    1.1110300 
H     6.9399593   -2.8230181    1.1588825 
H     6.5146813   -0.7387204    2.4731117 
H     4.2185189   -0.1405856    3.1662907 
H     2.7142450   -3.7213046    1.2380519 
H     5.0235361   -4.3126030    0.5380941 
C    -1.8242535    3.3378642    4.9827879 
C    -2.4930555    2.1079891    5.0656701 
C    -1.8673833    0.9338254    4.6301268 
C    -0.5605924    0.9647097    4.0927094 
C     0.1041584    2.2129501    4.0202341 
C    -0.5192527    3.3831404    4.4633537 
H    -2.3130190    4.2564084    5.3231717 
H    -3.5085196    2.0599869    5.4725140 
H    -2.3959933   -0.0228904    4.6986785 
H     1.1129736    2.2733938    3.5964647 
H     0.0116727    4.3388985    4.3991223 
C    -2.8147308   -1.8468450    2.4077272 
C    -3.7031315   -2.3398272    3.3707701 
C    -4.8103201   -1.5691028    3.7638944 
C    -5.0211501   -0.3094208    3.1870966 
C    -4.1376129    0.1845601    2.2146568 
C    -3.0305359   -0.5845586    1.8087702 
C    -2.2448515    1.7700467    0.2681633 
C    -1.4341660    2.8024269    0.7777036 
C    -1.7884524    4.1395458    0.5591939 
C    -2.9468047    4.4478779   -0.1705440 
C    -3.7556813    3.4197386   -0.6805009 
C    -3.4106512    2.0807250   -0.4618457 
C    -2.0168268   -0.9429901   -0.9389527 
C    -2.6796797   -2.1806204   -0.8588883 
C    -2.6534339   -3.0649049   -1.9467890 
C    -1.9904261   -2.7100441   -3.1167034 
C    -1.3486141   -0.5476833   -2.1372543 
C    -1.3656408   -1.4507720   -3.2359580 
C    -0.6683398    0.7881897   -2.2255436 
C    -1.3271456    1.8882362   -2.8355227 
O    -2.5943639    1.8328471   -3.3503324 
C    -2.9885128    0.8652379   -4.3458585 
C    -1.9765410    0.6554861   -5.4773838 
C    -0.6316638    0.0055428   -5.1181901 
O    -0.7785334   -1.2635572   -4.4548453 
C    -0.7199779    3.1551165   -2.8838499 
C     0.5700788    3.3345596   -2.3864340 
C     1.2572832    2.2571037   -1.8128166 
C     0.6416157    0.9946799   -1.7080165 
C     3.1550004    0.2385726   -0.4278048 
C     4.2668555   -0.3473209   -1.0594042 
C     5.5526583    0.1664610   -0.8334853 
C     5.7399548    1.2672182    0.0137699 
C     4.6388812    1.8378429    0.6710806 
C     3.3562441    1.3158059    0.4663988 
C     1.4896412   -1.8346560   -1.7162793 
C     1.9388214   -1.7912033   -3.0519492 
C     1.9645100   -2.9637912   -3.8171637 
C     1.5381312   -4.1785209   -3.2587024 
C     1.0804815   -4.2235873   -1.9324027 
C     1.0551857   -3.0548032   -1.1619012 
H    -1.9398679   -2.4429090    2.1201757 
H    -3.5276019   -3.3219406    3.8218325 
H    -5.5009259   -1.9492428    4.5235856 
H    -5.8749239    0.3014506    3.4980515 
H    -4.3045456    1.1778060    1.7889034 
H    -0.5313978    2.5509809    1.3435525 
H    -1.1572955    4.9408586    0.9567065 
H    -3.2198704    5.4938227   -0.3457541 
H    -4.6510214    3.6605937   -1.2620406 
H    -4.0284876    1.2789391   -0.8785753 
H    -3.2192014   -2.4601612    0.0485341 
H    -3.1650458   -4.0303363   -1.8781473 
H    -1.9548820   -3.3726237   -3.9855329 
H    -3.9113971    1.2939695   -4.7680900 
H    -3.2586467   -0.0909014   -3.8655699 
H    -1.7630447    1.6266821   -5.9618439 
H    -2.4796155    0.0216554   -6.2308166 
H    -0.1006702   -0.2557685   -6.0472140 
H     0.0215136    0.6795278   -4.5427809 
H    -1.2841619    3.9725215   -3.3404849 
H     1.0529743    4.3147183   -2.4538443 
H     2.2740352    2.4058311   -1.4430445 
H     4.1353658   -1.2079994   -1.7214236 
H     6.4121401   -0.3001938   -1.3254406 
H     6.7449921    1.6699137    0.1763037 
H     4.7805155    2.6842728    1.3512941 
H     2.4969176    1.7513032    0.9923040 
H     2.2480590   -0.8383954   -3.4955200 
H     2.3035030   -2.9267402   -4.8572904 
H     1.5528292   -5.0915131   -3.8630290 
H     0.7310358   -5.1680949   -1.5030275 
H     0.6712234   -3.0719445   -0.1357345 
