227
Energy =
C    -4.0414501    0.7376838    0.2622228 
C    -4.1048362   -0.2536360   -0.7652135 
C    -3.7549708   -1.5998506   -0.5107257 
H    -4.2787670    0.0675703   -1.8003707 
Pd   -2.0325837   -0.1759720   -0.0454649 
P    -0.2194294   -1.4540917   -0.7978835 
P    -0.6059550    1.5081725    0.6499494 
H    -4.2463568    0.4146600    1.2936573 
H    -3.8016840   -1.9343489    0.5370726 
C    -4.5545248    4.9523973   -0.4733152 
C    -4.0339066    4.1225794   -1.4801721 
C    -3.8750448    2.7522142   -1.2511038 
C    -4.2345685    2.1756571   -0.0105363 
C    -4.7608745    3.0214859    0.9886418 
C    -4.9209636    4.3929500    0.7589821 
H    -4.6721571    6.0265568   -0.6494821 
H    -3.7404014    4.5477978   -2.4462253 
H    -3.4315859    2.1254442   -2.0312351 
H    -5.0431487    2.5954373    1.9568211 
H    -5.3329049    5.0277662    1.5488546 
C    -3.7571378   -4.8863005   -3.2875577 
C    -3.7671635   -3.5698327   -3.7772724 
C    -3.7572563   -2.4858528   -2.8947062 
C    -3.7378138   -2.6934385   -1.4964162 
C    -3.7167504   -4.0241556   -1.0217949 
C    -3.7257399   -5.1095553   -1.9029677 
H    -3.7737151   -5.7311719   -3.9838081 
H    -3.7864067   -3.3880363   -4.8569565 
H    -3.7642828   -1.4706710   -3.3001071 
H    -3.6963465   -4.2026067    0.0563868 
H    -3.7078533   -6.1296146   -1.5051505 
C     3.0784137   -1.8558401   -6.4747076 
C     2.5554495   -2.5604029   -5.1980329 
C     3.6968425   -2.4604114   -4.1461954 
C     2.3243958   -4.0690863   -5.4757270 
C     1.2586753   -1.9172792   -4.6321851 
C     1.0792113   -1.9295894   -3.2374432 
C     0.2328031   -1.2919688   -5.4002345 
O     0.2698731   -1.3005148   -6.7826128 
C    -0.1400219   -2.5012342   -7.4512130 
C    -0.8284440   -0.5530592   -4.7921450 
C    -1.7924088    0.3432649   -5.6099345 
C    -2.6825719    1.1970965   -4.6760293 
C    -2.7326563   -0.4993713   -6.5065906 
C    -0.9744135    1.3351436   -6.4762010 
C    -0.9519384   -0.6279994   -3.3958170 
C    -0.0399650   -1.3547392   -2.6205379 
C    -0.4168734   -3.2240517   -0.3519834 
C    -1.0339386   -3.5336519    0.8741519 
C    -1.1572184   -4.8571783    1.3263440 
C    -1.9650240   -5.1844144    2.6091049 
C    -2.6177454   -3.9099699    3.1931359 
C    -3.1071042   -6.1768324    2.2590044 
C    -1.0810889   -5.8038115    3.7223428 
C    -0.5835510   -5.8805321    0.5106419 
O    -0.5528878   -7.1601141    1.0302862 
C     0.7285595   -7.5752036    1.5227155 
C    -0.1074067   -5.6210753   -0.8034094 
C    -0.0091121   -4.2684996   -1.1864937 
C     0.3098693   -6.6832421   -1.8586206 
C    -0.2189421   -8.1130080   -1.5852984 
C    -0.2795008   -6.2771076   -3.2391467 
C     1.8562507   -6.7055165   -1.9770087 
C     1.4745513   -1.0216671   -0.2482692 
C     2.2268164   -1.9279028    0.5176964 
C     3.5347630   -1.6405208    0.9160126 
C     2.0607751    0.2228725   -0.6262837 
C     3.3787210    0.4904976   -0.2321773 
C     4.1495607   -0.4219416    0.5483264 
O     3.9356549    1.6971491   -0.5913989 
C     5.3412826    1.5867422   -0.8523902 
C     6.0749759    1.1164709    0.3971622 
N     5.4364488   -0.0871837    0.9250228 
C     6.1898272   -0.9373359    1.8351909 
C     1.3447444    1.2840172   -1.4083293 
C     1.8354018    1.6188137   -2.6840420 
C     1.2632681    2.6704922   -3.4659020 
O     2.8955954    0.8880816   -3.1593021 
C     3.6592588    1.5118515   -4.1975544 
C     2.7393982    2.0436820   -5.2911340 
N     1.8163204    2.9981218   -4.6928393 
C     1.3498450    4.1501953   -5.4481186 
C     0.2298726    2.0075406   -0.8908372 
C    -0.3724153    3.0048201   -1.6833863 
C     0.1392675    3.3425771   -2.9365008 
C    -1.3131048    2.9858956    1.4849567 
C    -2.0441044    2.6886021    2.6480575 
C    -2.4525847    3.6845825    3.5420953 
C    -3.0919369    3.2942799    4.8972320 
C    -4.5057026    3.8960756    5.0957864 
C    -3.2243444    1.7589753    5.0312148 
C    -2.1527975    3.7868979    6.0315293 
C    -2.1532689    5.0379245    3.1934807 
O    -2.6496385    6.0342970    4.0135539 
C    -3.7724031    6.7576207    3.4966026 
C    -1.3163628    5.3651149    2.0921173 
C    -0.9336675    4.3067362    1.2403329 
C    -0.7251846    6.7650623    1.7603384 
C    -0.8068641    7.8110257    2.9000065 
C     0.7939931    6.6004579    1.4624309 
C    -1.4226773    7.3238142    0.4933908 
C     0.6470420    1.1348842    1.9376034 
C     0.4541472    0.0838439    2.8354631 
C     1.1940761   -0.0094507    4.0351204 
C     1.0043287   -1.2904720    4.8911936 
C     2.0272113   -1.4880618    6.0365131 
C     1.1980375   -2.5103163    3.9478799 
C    -0.4288030   -1.3232263    5.4793863 
C     2.0698207    1.0686349    4.3271054 
O     2.6330919    1.1873950    5.5852703 
C     1.7325255    1.7105725    6.5719481 
C     2.4152899    2.0548267    3.3531296 
C     1.6713455    2.0692888    2.1671188 
C     3.5853350    3.0460146    3.5608138 
C     3.2923517    4.0648770    4.6913915 
C     3.8568749    3.8552665    2.2708567 
C     4.8668547    2.2395672    3.8993729 
H     4.0613307   -2.2808538   -6.7434964 
H     2.4122275   -1.9673625   -7.3396746 
H     3.2119051   -0.7750295   -6.2987100 
H     4.6469080   -2.7735080   -4.6122801 
H     3.8058724   -1.4312473   -3.7660655 
H     3.5318393   -3.1236560   -3.2799720 
H     2.0499968   -4.5946673   -4.5455544 
H     3.2495422   -4.5293783   -5.8669024 
H     1.5211301   -4.2447165   -6.2076673 
H     1.8480209   -2.3745900   -2.6031701 
H    -0.8699865   -3.0658044   -6.8441748 
H     0.7281865   -3.1473170   -7.6753753 
H    -0.6065642   -2.1969524   -8.4021841 
H    -3.3043056    1.8747628   -5.2857779 
H    -2.0755442    1.8128353   -3.9900764 
H    -3.3727161    0.5786379   -4.0752758 
H    -2.1823440   -1.0276556   -7.2968780 
H    -3.2859964   -1.2427164   -5.9069563 
H    -3.4711634    0.1592969   -6.9977357 
H    -0.3503841    0.8078162   -7.2120617 
H    -1.6564313    2.0179890   -7.0141813 
H    -0.3190279    1.9388665   -5.8277263 
H    -1.7533489   -0.0945854   -2.8786800 
H    -1.4386333   -2.7119301    1.4715476 
H    -3.2857304   -3.4157280    2.4647735 
H    -3.2306419   -4.1848839    4.0681930 
H    -1.8677042   -3.1758398    3.5317583 
H    -3.8058965   -5.7360327    1.5266017 
H    -3.6835380   -6.4166213    3.1703464 
H    -2.7056899   -7.1130548    1.8430006 
H    -0.1759531   -5.1980784    3.8956754 
H    -1.6511632   -5.8426247    4.6678040 
H    -0.7811838   -6.8317689    3.4757832 
H     0.5750602   -8.5568260    1.9956640 
H     1.4653360   -7.6746653    0.7050046 
H     1.1181000   -6.8585511    2.2688613 
H     0.3865589   -4.0298443   -2.1745372 
H    -1.2998496   -8.1057441   -1.3689027 
H     0.2916109   -8.6161607   -0.7529574 
H    -0.0526848   -8.7254892   -2.4891538 
H     0.0132367   -7.0265565   -3.9949285 
H    -1.3792707   -6.2345547   -3.1959030 
H     0.0787972   -5.2976572   -3.5934606 
H     2.3333007   -7.0031561   -1.0274216 
H     2.2469740   -5.7089253   -2.2494893 
H     2.1705689   -7.4226042   -2.7564356 
H     1.7879089   -2.8875627    0.8042412 
H     4.0827714   -2.3760250    1.5093645 
H     5.4968244    0.8806319   -1.6912501 
H     5.6815804    2.5892052   -1.1528405 
H     6.0843924    1.9241607    1.1550414 
H     7.1264044    0.8913133    0.1353239 
H     7.1181608   -0.4187818    2.1182230 
H     6.4584205   -1.9079418    1.3717877 
H     5.6152199   -1.1358231    2.7586357 
H     4.2589998    2.3376267   -3.7687544 
H     4.3346985    0.7321004   -4.5816129 
H     2.2011670    1.2016150   -5.7726295 
H     3.3382432    2.5537202   -6.0641773 
H     2.0449270    4.3283854   -6.2829812 
H     1.3383295    5.0509430   -4.8077416 
H     0.3344769    4.0090137   -5.8701813 
H    -1.2652267    3.5219694   -1.3236270 
H    -0.3516890    4.1263217   -3.5182309 
H    -2.2655393    1.6397697    2.8631847 
H    -4.4653591    4.9828881    5.2506265 
H    -5.1575816    3.6814890    4.2302470 
H    -4.9759653    3.4499279    5.9900517 
H    -3.6430116    1.5177138    6.0232793 
H    -3.9061565    1.3338685    4.2718112 
H    -2.2491500    1.2493750    4.9476014 
H    -2.0377357    4.8816351    5.9989805 
H    -1.1551440    3.3228427    5.9335055 
H    -2.5689927    3.5069409    7.0163696 
H    -3.5930398    7.1035244    2.4630101 
H    -3.9179700    7.6249952    4.1580936 
H    -4.6840435    6.1327734    3.5090437 
H    -0.2855029    4.5243600    0.3896011 
H    -0.1728377    8.6724942    2.6248779 
H    -1.8216680    8.1991622    3.0612095 
H    -0.4381171    7.4017802    3.8540519 
H     0.9990452    5.9607046    0.5884481 
H     1.3141905    6.1683564    2.3348912 
H     1.2365291    7.5899774    1.2537911 
H    -2.5030305    7.4736558    0.6643064 
H    -0.9828395    8.2968524    0.2096375 
H    -1.3134607    6.6321466   -0.3606953 
H    -0.2997360   -0.6759546    2.5988803 
H     1.9117708   -2.5147438    6.4278823 
H     3.0629416   -1.3684262    5.6804948 
H     1.8736601   -0.8005237    6.8799020 
H     0.4804752   -2.5296645    3.1126768 
H     1.0700963   -3.4444426    4.5219287 
H     2.2129014   -2.5041286    3.5160409 
H    -1.1934374   -1.2400609    4.6879453 
H    -0.5895476   -0.4905871    6.1860822 
H    -0.6013247   -2.2697356    6.0222864 
H     0.8539517    1.0537213    6.7090770 
H     1.3787377    2.7190966    6.2890803 
H     2.3002045    1.7666777    7.5130141 
H     1.8561874    2.8392366    1.4142510 
H     2.3184577    4.5611110    4.5320930 
H     3.2909472    3.5866712    5.6811652 
H     4.0751553    4.8445803    4.6996079 
H     4.0241665    3.2024539    1.3982748 
H     4.7570141    4.4773837    2.4181139 
H     3.0225897    4.5361636    2.0295819 
H     5.7333427    2.9206551    3.9808645 
H     4.7548661    1.6994317    4.8517475 
H     5.0738349    1.5026947    3.1047244 
