227
Energy =
C     3.6960376   -0.5110234   -1.0322238 
C     3.9475325    0.4452312   -0.0195513 
C     3.6682807    0.1450669    1.3506330 
H     4.1946646    1.4752108   -0.3056291 
Pd    1.8073419   -0.0258728    0.1298577 
P     0.1692154   -0.3239414    1.7567344 
P     0.2803815    0.0858474   -1.6205414 
H     3.6284826   -1.5626995   -0.7115211 
H     3.7829944   -0.9002240    1.6687306 
C     4.0148801   -0.0599265   -5.2958542 
C     3.5970343   -1.2734552   -4.7289025 
C     3.5235451   -1.4066447   -3.3391577 
C     3.8437958   -0.3266041   -2.4830522 
C     4.2678694    0.8868736   -3.0695715 
C     4.3575771    1.0132997   -4.4583810 
H     4.0820576    0.0467253   -6.3832535 
H     3.3321890   -2.1209307   -5.3701783 
H     3.1993763   -2.3566289   -2.9041716 
H     4.5335762    1.7389950   -2.4376817 
H     4.6987073    1.9577965   -4.8905572 
C     3.9148495    3.0014291    4.5720153 
C     3.7241017    3.4487569    3.2544132 
C     3.6277961    2.5315728    2.2031670 
C     3.7430100    1.1410155    2.4377525 
C     3.9329668    0.7071924    3.7687213 
C     4.0147925    1.6255454    4.8217704 
H     3.9848458    3.7204219    5.3948224 
H     3.6432011    4.5206410    3.0468931 
H     3.4478518    2.9001243    1.1884423 
H     4.0124479   -0.3644550    3.9739186 
H     4.1633454    1.2633109    5.8432630 
C    -1.5438524   -2.4461434   -6.6802238 
C    -2.2326990   -2.8241037   -5.3412213 
C    -2.9877851   -4.1687607   -5.4861459 
C    -3.3209521   -1.7482413   -5.0673039 
C    -1.1767319   -2.8216026   -4.2011924 
C    -0.9726112   -1.6141949   -3.5062351 
C    -0.3800681   -3.9358326   -3.8002417 
O    -0.4679987   -5.1515815   -4.4540776 
C     0.2327220   -5.3033150   -5.6960144 
C     0.4713504   -3.8866785   -2.6532340 
C     1.1629991   -5.1371982   -2.0561123 
C     2.2427805   -5.7016695   -3.0125956 
C     0.0972237   -6.2194461   -1.7486522 
C     1.8634763   -4.7973186   -0.7175987 
C     0.6447606   -2.6413207   -2.0349697 
C    -0.0252863   -1.4963275   -2.4821102 
C     0.8743981    1.3276095   -2.8397822 
C     1.5299520    2.4709382   -2.3446190 
C     1.9534242    3.5079408   -3.1916589 
C     2.6345791    4.7700084   -2.6062734 
C     1.6987303    5.9857149   -2.8377032 
C     2.8756589    4.6244419   -1.0872300 
C     4.0188793    5.0541722   -3.2451062 
C     1.6647347    3.3771333   -4.5850139 
O     2.1116062    4.3759787   -5.4270216 
C     3.1870746    4.0348532   -6.3101990 
C     0.8883110    2.3012511   -5.0973547 
C     0.5815647    1.2555441   -4.2036211 
C     0.2619135    2.1958805   -6.5182824 
C    -1.2333704    1.7937398   -6.3483910 
C     0.2387320    3.5120754   -7.3343967 
C     0.9814308    1.0901464   -7.3307642 
C    -1.3981597    0.6665025   -1.1841760 
C    -1.8806642    1.9119334   -1.6258207 
C    -3.1732860    2.3460500   -1.3189154 
C    -2.2461871   -0.1707063   -0.4041178 
C    -3.5433108    0.2748250   -0.1137320 
C    -4.0404303    1.5378205   -0.5495097 
O    -4.3750134   -0.5409463    0.6208807 
C    -5.7300137   -0.4649699    0.1549030 
C    -6.2723114    0.9464592    0.3366976 
N    -5.3203684    1.9226151   -0.1937028 
C    -5.8036620    3.2652724   -0.4766437 
C    -1.8632701   -1.5154770    0.1402828 
C    -2.5582395   -2.6353674   -0.3509832 
C    -2.4152256   -3.9344410    0.2292234 
O    -3.4040899   -2.4271686   -1.4132891 
C    -4.3745985   -3.4530597   -1.6509533 
C    -3.7212375   -4.8297441   -1.6038510 
N    -3.1251996   -5.0042997   -0.2879240 
C    -3.0935987   -6.3122272    0.3470484 
C    -0.9561475   -1.6840330    1.2296889 
C    -0.8464648   -2.9560689    1.8233714 
C    -1.5596927   -4.0554631    1.3438705 
C     0.9191476   -0.9365618    3.3150776 
C     0.5907644   -0.4167933    4.5675296 
C     1.1487767   -0.9229946    5.7611733 
C     0.5534679   -0.3719605    7.0872701 
C    -0.9981558   -0.3743818    6.9515940 
C     0.8623207   -1.2164543    8.3478085 
C     1.0239940    1.0887156    7.3060035 
C     2.1498396   -1.9221565    5.6303996 
O     2.8604181   -2.3561652    6.7334317 
C     3.8869165   -1.4625904    7.1815255 
C     2.4406628   -2.5461868    4.3758037 
C     1.8246688   -2.0117135    3.2369253 
C     3.3363789   -3.8038586    4.2561470 
C     4.8027137   -3.5208497    4.6705927 
C     2.7453818   -4.9266650    5.1497428 
C     3.3652361   -4.3314208    2.8020662 
C    -0.8643388    1.1003926    2.2340139 
C    -2.0528218    0.9046826    2.9631311 
C    -2.7498919    1.9891799    3.5154113 
C    -4.1075561    1.7835002    4.2305819 
C    -4.5605287    0.3081637    4.1301860 
C    -5.1676878    2.6654840    3.5177602 
C    -4.0553427    2.1567036    5.7337575 
C    -2.1993436    3.2905705    3.3096103 
O    -2.7503766    4.3389758    4.0225819 
C    -1.9421597    4.7625093    5.1296393 
C    -1.1444760    3.5324381    2.3915586 
C    -0.4530399    2.3983689    1.9147864 
C    -0.7375728    4.9145288    1.8119584 
C    -1.6556733    6.1035291    2.1836723 
C    -0.8173645    4.7942166    0.2640091 
C     0.7152666    5.2504181    2.2246417 
H    -2.2917974   -2.3936050   -7.4919262 
H    -1.0574260   -1.4589270   -6.5987837 
H    -0.7733156   -3.1743813   -6.9753257 
H    -3.7663152   -4.0621481   -6.2616639 
H    -2.3398787   -5.0087996   -5.7653419 
H    -3.4879663   -4.4390352   -4.5407686 
H    -3.7338932   -1.8414659   -4.0492622 
H    -4.1409040   -1.8693486   -5.7955196 
H    -2.9408791   -0.7197489   -5.1829253 
H    -1.5854085   -0.7446668   -3.7496526 
H     1.1066973   -4.6298342   -5.7462273 
H    -0.4346167   -5.1037811   -6.5541520 
H     0.5710120   -6.3507721   -5.7505649 
H     2.8054139   -6.5068198   -2.5070951 
H     2.9629717   -4.9162707   -3.3042357 
H     1.8029538   -6.1287650   -3.9239473 
H    -0.6481720   -5.8143662   -1.0448446 
H    -0.4217419   -6.5431638   -2.6630901 
H     0.5747596   -7.0992957   -1.2812595 
H     2.6996580   -4.0868402   -0.8496244 
H     1.1575796   -4.3738581    0.0178923 
H     2.2874542   -5.7206113   -0.2871286 
H     1.2979374   -2.5417875   -1.1651835 
H     1.7248059    2.5274395   -1.2693450 
H     0.7241747    5.8238330   -2.3455108 
H     2.1518817    6.9004846   -2.4144767 
H     1.5275065    6.1459861   -3.9138452 
H     1.9445398    4.4597632   -0.5235636 
H     3.3348256    5.5495366   -0.6994265 
H     3.5702282    3.7933358   -0.8689163 
H     3.9248898    5.4275210   -4.2733117 
H     4.5419348    5.8291450   -2.6576126 
H     4.6534424    4.1499017   -3.2472679 
H     4.1497192    4.0225069   -5.7673939 
H     3.0313018    3.0492423   -6.7816285 
H     3.2200522    4.8167491   -7.0838352 
H     0.0607520    0.3759162   -4.5850055 
H    -1.7714986    2.5363192   -5.7338229 
H    -1.3583613    0.8072876   -5.8754031 
H    -1.7181151    1.7459146   -7.3389741 
H    -0.1478720    4.3533336   -6.7373015 
H     1.2223512    3.7948024   -7.7327275 
H    -0.4288359    3.3685687   -8.2021925 
H     0.9743410    0.1266864   -6.7915230 
H     2.0350005    1.3555437   -7.5242532 
H     0.4826364    0.9450851   -8.3056971 
H    -1.2419120    2.5549608   -2.2375195 
H    -3.5118410    3.3143179   -1.6949437 
H    -5.7576297   -0.7658498   -0.9103398 
H    -6.3078122   -1.1869517    0.7516122 
H    -6.4700962    1.1414746    1.4082484 
H    -7.2362063    1.0340886   -0.2024696 
H    -6.0192017    3.4211065   -1.5537957 
H    -5.0643744    4.0189078   -0.1524936 
H    -6.7308690    3.4352342    0.0924754 
H    -5.1756363   -3.3891504   -0.8894850 
H    -4.7988258   -3.2388625   -2.6437821 
H    -2.9638786   -4.9158033   -2.4099334 
H    -4.4846832   -5.6089422   -1.7651678 
H    -3.8398755   -6.9583037   -0.1402617 
H    -3.3543038   -6.2292092    1.4178956 
H    -2.1042391   -6.8055357    0.2663854 
H    -0.1959875   -3.1032899    2.6876490 
H    -1.4365253   -5.0224432    1.8370021 
H    -0.1365670    0.3958530    4.6241262 
H    -1.3567377    0.2826989    6.1430020 
H    -1.3729222   -1.3939344    6.7540302 
H    -1.4509970   -0.0167507    7.8928534 
H     0.2225553   -0.8557897    9.1726045 
H     0.6430584   -2.2837155    8.1832208 
H     1.9041744   -1.1296116    8.6860908 
H     2.1175966    1.1442300    7.4423421 
H     0.5465430    1.5119248    8.2079920 
H     0.7637469    1.7274934    6.4433764 
H     4.3708747   -1.9520582    8.0399501 
H     3.4692919   -0.4911883    7.5018750 
H     4.6352036   -1.2858521    6.3868459 
H     2.0432401   -2.4368196    2.2540041 
H     5.4338720   -4.3918075    4.4194319 
H     5.2072411   -2.6446523    4.1324383 
H     4.8937719   -3.3483071    5.7517676 
H     1.7172009   -5.1740142    4.8305122 
H     2.7214226   -4.6199349    6.2065093 
H     3.3610425   -5.8400674    5.0626360 
H     3.8236892   -3.6083522    2.1028168 
H     3.9706161   -5.2531477    2.7644976 
H     2.3561529   -4.5802727    2.4304452 
H    -2.4170145   -0.1154909    3.1041621 
H    -5.5650215    0.2085213    4.5772760 
H    -4.6110181   -0.0373047    3.0835789 
H    -3.8849915   -0.3668876    4.6857295 
H    -4.9487577    3.7351458    3.6567851 
H    -6.1725618    2.4568451    3.9276659 
H    -5.1747739    2.4530031    2.4356171 
H    -3.9267011    3.2384686    5.8801474 
H    -3.2367679    1.6254366    6.2487531 
H    -5.0043542    1.8651114    6.2184370 
H    -1.8093328    3.9407368    5.8584086 
H    -2.4785514    5.5972304    5.6055045 
H    -0.9449085    5.1044205    4.7958417 
H     0.4244398    2.5229082    1.2699640 
H    -2.7165061    5.8774355    1.9917860 
H    -1.5550564    6.4163654    3.2329027 
H    -1.3669012    6.9670295    1.5577924 
H    -0.1922180    3.9795823   -0.1347715 
H    -0.4842842    5.7386018   -0.2011423 
H    -1.8545801    4.5945679   -0.0525144 
H     1.0341798    6.2040497    1.7668258 
H     0.8077130    5.3462666    3.3206410 
H     1.4158245    4.4641993    1.9015297 
