227
Energy =
C     3.7579485   -0.0299294   -0.7314459 
C     3.8049447    0.9991583    0.2358577 
C     3.3582132    0.7868414    1.5776022 
H     4.0181687    2.0221305   -0.1008886 
Pd    1.6983110    0.3415305    0.1694572 
P     0.0301026   -0.1844418    1.7029452 
P     0.2832114    0.1766161   -1.6560428 
H     3.6738840   -1.0653532   -0.3636456 
H     3.5090821   -0.2078134    2.0175303 
C     4.9883660    0.2381397   -4.8440644 
C     4.1737807   -0.8179692   -4.4073260 
C     3.7771776   -0.8899953   -3.0696984 
C     4.1766879    0.0953677   -2.1376558 
C     4.9966554    1.1525808   -2.5907572 
C     5.3991521    1.2198858   -3.9292899 
H     5.3124151    0.2882565   -5.8888087 
H     3.8444556   -1.5875882   -5.1126156 
H     3.1305991   -1.7085176   -2.7416083 
H     5.3520324    1.9094036   -1.8855716 
H     6.0521603    2.0357096   -4.2566573 
C     2.8713077    3.9695479    4.4419197 
C     2.7985754    4.2488178    3.0670382 
C     2.9466905    3.2215546    2.1306364 
C     3.1828824    1.8877934    2.5441999 
C     3.2443005    1.6201540    3.9304892 
C     3.0947074    2.6517486    4.8666053 
H     2.7574595    4.7748571    5.1750021 
H     2.6198196    5.2735789    2.7249462 
H     2.8601394    3.4546555    1.0630689 
H     3.4188625    0.5934140    4.2701200 
H     3.1626683    2.4275472    5.9357673 
C    -1.7950705   -3.3341985   -6.3765579 
C    -2.3007359   -3.2375606   -4.9146670 
C    -2.9969381   -4.5655891   -4.5139036 
C    -3.3574460   -2.1089807   -4.8567269 
C    -1.1476278   -2.9586793   -3.9208287 
C    -1.0682542   -1.7346730   -3.2395374 
C    -0.1560228   -3.9410000   -3.6178924 
O    -0.0709980   -5.0450643   -4.4454335 
C     1.0351289   -4.9915848   -5.3573490 
C     0.7074419   -3.8227703   -2.4963578 
C     1.5477645   -4.9612536   -1.8563526 
C     1.2994884   -6.3795554   -2.4232144 
C     1.1513812   -5.0319471   -0.3555444 
C     3.0584936   -4.6332851   -1.9624786 
C     0.7594486   -2.5565545   -1.8795862 
C    -0.0580063   -1.4978761   -2.2898892 
C     0.9717443    1.1291180   -3.0632687 
C     0.7941942    0.7644575   -4.4003974 
C     1.2098658    1.5920900   -5.4603207 
C     0.8717876    1.0828588   -6.8899000 
C     1.6395434   -0.2403535   -7.1469498 
C    -0.6578963    0.8036696   -6.9419156 
C     1.1761452    2.0496088   -8.0577803 
C     1.8436971    2.8206834   -5.1190887 
O     2.3383592    3.6178925   -6.1291621 
C     3.7180821    3.4038758   -6.4300344 
C     1.9550678    3.2689597   -3.7687083 
C     1.5615668    2.3674771   -2.7661854 
C     2.4070920    4.6805559   -3.2965383 
C     3.7518893    4.5669154   -2.5367014 
C     2.5562073    5.7492775   -4.4057474 
C     1.3250461    5.2229710   -2.3177124 
C    -1.3167359    1.0149672   -1.3316820 
C    -1.5762873    2.2799853   -1.8926075 
C    -2.7287397    2.9967523   -1.5691205 
C    -2.2646104    0.4539066   -0.4276150 
C    -3.4179010    1.1881641   -0.1013438 
C    -3.6761495    2.4789340   -0.6604695 
O    -4.3026721    0.6079198    0.7740411 
C    -5.6249584    1.1590217    0.7796565 
C    -5.5698977    2.6816752    0.8392066 
N    -4.8336873    3.1581495   -0.3224381 
C    -5.1926678    4.4103708   -0.9693467 
C    -2.1502958   -0.9507251    0.0840590 
C    -3.0716382   -1.8796331   -0.4179915 
C    -3.0633758   -3.2542366   -0.0404132 
O    -4.0185048   -1.4465677   -1.3188792 
C    -5.2740411   -2.1145325   -1.1286928 
C    -5.1154115   -3.6099821   -1.3699847 
N    -3.9765137   -4.1222281   -0.6092425 
C    -3.8876073   -5.5560478   -0.3805908 
C    -1.1757437   -1.3914946    1.0269902 
C    -1.1727292   -2.7418040    1.4206902 
C    -2.0914427   -3.6593531    0.9021427 
C     0.8461810   -1.0285508    3.1142842 
C     1.7686249   -2.0486533    2.8313730 
C     2.4905890   -2.7180271    3.8352876 
C     3.5457592   -3.7696388    3.3959355 
C     4.1366167   -3.3843545    2.0101000 
C     4.7569802   -3.8522505    4.3590043 
C     2.8691445   -5.1567133    3.2413824 
C     2.1997760   -2.3502934    5.1846927 
O     2.7728286   -3.0197103    6.2466481 
C     2.2354678   -4.2992940    6.6051997 
C     1.3751746   -1.2297335    5.4987264 
C     0.6987205   -0.5978108    4.4397015 
C     1.2328927   -0.6752255    6.9392236 
C     2.6325163   -0.3987948    7.5498241 
C     0.4563025    0.6638091    6.9471937 
C     0.4480136   -1.6650011    7.8372846 
C    -1.0233381    1.1060841    2.4392350 
C    -2.0805509    0.7197308    3.2730658 
C    -2.9036358    1.6586701    3.9180760 
C    -4.0585051    1.1130960    4.8040162 
C    -4.5405864   -0.2598113    4.2539463 
C    -5.3045249    2.0329948    4.8287269 
C    -3.5471019    0.8669513    6.2478304 
C    -2.6000286    3.0336002    3.6876255 
O    -3.2969983    4.0330353    4.3418556 
C    -2.9212214    4.3190563    5.6961336 
C    -1.6257433    3.4519191    2.7287091 
C    -0.8223843    2.4589950    2.1451032 
C    -1.4638859    4.9289640    2.2908732 
C    -2.8355973    5.4917751    1.8385689 
C    -0.5113214    5.0415813    1.0760599 
C    -0.8744633    5.7956404    3.4316655 
H    -2.6573912   -3.3959456   -7.0644403 
H    -1.2051572   -2.4423008   -6.6517170 
H    -1.1790210   -4.2310033   -6.5347498 
H    -3.8887510   -4.7305958   -5.1447357 
H    -2.3180552   -5.4228963   -4.6348122 
H    -3.3163694   -4.5262536   -3.4583418 
H    -3.7273108   -1.9441506   -3.8305026 
H    -4.2137087   -2.3830515   -5.4971004 
H    -2.9597044   -1.1508132   -5.2352946 
H    -1.7850296   -0.9375102   -3.4497268 
H     2.0011030   -4.9430181   -4.8208106 
H     0.9549604   -4.1123769   -6.0241787 
H     0.9917213   -5.9149963   -5.9541573 
H     1.8007523   -7.1075466   -1.7604933 
H     1.7143666   -6.5206176   -3.4316422 
H     0.2258838   -6.6232327   -2.4558753 
H     1.3020572   -4.0743354    0.1679605 
H     0.0867101   -5.2990089   -0.2481873 
H     1.7599548   -5.7988591    0.1545653 
H     3.3765581   -4.5361718   -3.0152195 
H     3.3090232   -3.6899688   -1.4465341 
H     3.6574135   -5.4361498   -1.4969163 
H     1.4531044   -2.3816241   -1.0490291 
H     0.3142392   -0.1905198   -4.6273542 
H     1.3978796   -1.0098656   -6.3924797 
H     1.3776436   -0.6440706   -8.1415440 
H     2.7298219   -0.0702862   -7.1204055 
H    -0.9756328    0.0577466   -6.1948814 
H    -0.9347380    0.4171994   -7.9388129 
H    -1.2285591    1.7310397   -6.7606653 
H     2.2552886    2.1970182   -8.2138789 
H     0.7693650    1.6057178   -8.9843453 
H     0.7108371    3.0358359   -7.9110717 
H     4.3595269    3.6182850   -5.5539339 
H     3.9004890    2.3596934   -6.7487680 
H     3.9702063    4.0920628   -7.2509688 
H     1.6697380    2.6503833   -1.7121947 
H     4.5493571    4.1845677   -3.1962323 
H     3.6696967    3.8826136   -1.6739125 
H     4.0622401    5.5570814   -2.1578166 
H     3.4266405    5.5728988   -5.0538218 
H     1.6601946    5.8082661   -5.0427431 
H     2.7032235    6.7304459   -3.9195076 
H     1.2033646    4.5912516   -1.4227646 
H     0.3437165    5.2927056   -2.8192461 
H     1.6066674    6.2336659   -1.9732726 
H    -0.8707631    2.7229163   -2.5987472 
H    -2.8871898    3.9777411   -2.0228464 
H    -6.1645056    0.8337939   -0.1307518 
H    -6.1207517    0.7370864    1.6673508 
H    -5.0907362    3.0045176    1.7861704 
H    -6.5932136    3.0915376    0.8151198 
H    -5.1764562    4.2961702   -2.0686520 
H    -4.5170476    5.2452020   -0.6953786 
H    -6.2149141    4.6829797   -0.6653865 
H    -5.6337785   -1.9141163   -0.1007529 
H    -5.9761889   -1.6728743   -1.8519453 
H    -4.9822551   -3.8049167   -2.4516038 
H    -6.0404434   -4.1276278   -1.0488887 
H    -4.5516156   -6.0707993   -1.0920967 
H    -4.1885945   -5.8410329    0.6482975 
H    -2.8574937   -5.9146660   -0.5571816 
H    -0.4519705   -3.0908438    2.1649004 
H    -2.0581068   -4.6955013    1.2471305 
H     1.9427184   -2.3121634    1.7839197 
H     3.3971849   -3.4445241    1.1944664 
H     4.5617881   -2.3651163    2.0240246 
H     4.9484668   -4.0865454    1.7551554 
H     5.5315936   -4.4954728    3.9058456 
H     5.1948809   -2.8523881    4.5224437 
H     4.5053562   -4.2692533    5.3422319 
H     2.4556300   -5.5249838    4.1927992 
H     3.6003961   -5.9010177    2.8776392 
H     2.0413689   -5.1024041    2.5138896 
H     2.3438222   -4.3977961    7.6974076 
H     2.7994184   -5.1171105    6.1204749 
H     1.1682398   -4.3761140    6.3313741 
H     0.0493858    0.2525278    4.6472459 
H     2.5182940    0.0435156    8.5556312 
H     3.2260108   -1.3200482    7.6347109 
H     3.1938916    0.3174937    6.9249539 
H    -0.5888928    0.5437352    6.6167445 
H     0.9347103    1.4235181    6.3057808 
H     0.4322195    1.0571146    7.9780261 
H     1.0039678   -2.5973138    8.0074081 
H     0.2610125   -1.2049552    8.8241782 
H    -0.5288788   -1.9143394    7.3859397 
H    -2.2630439   -0.3474771    3.4156761 
H    -5.4612000   -0.5603938    4.7831634 
H    -4.7482813   -0.2108353    3.1727778 
H    -3.8011722   -1.0620992    4.4166584 
H    -5.1266022    2.9978729    5.3200373 
H    -6.1187083    1.5195013    5.3696209 
H    -5.6575214    2.2442748    3.8052382 
H    -3.1589414    1.7831057    6.7193952 
H    -2.7339872    0.1204767    6.2433823 
H    -4.3648318    0.4762743    6.8799023 
H    -1.8487574    4.1151501    5.8636292 
H    -3.5225227    3.7270013    6.4101847 
H    -3.1253429    5.3884593    5.8657278 
H    -0.0328706    2.7246464    1.4388607 
H    -3.2373684    4.8735831    1.0189105 
H    -3.5633311    5.4965089    2.6628990 
H    -2.7140740    6.5249338    1.4662202 
H     0.5176048    4.7318992    1.3239219 
H    -0.4691352    6.0941152    0.7461527 
H    -0.8654340    4.4342138    0.2248856 
H    -0.6375475    6.8050938    3.0495266 
H    -1.5829805    5.9164495    4.2630314 
H     0.0558817    5.3475615    3.8216284 
