227
Energy =
C    -3.9264541    0.6647487    0.4253957 
C    -4.0753355   -0.4731494   -0.4319663 
C    -3.7120434   -1.7708536   -0.0083731 
H    -4.3373792   -0.3189573   -1.4875787 
Pd   -1.9578096   -0.2891052    0.0867318 
P    -0.1481869   -1.5258987   -0.7798338 
P    -0.5443826    1.4610071    0.6306759 
H    -4.0775275    0.5147345    1.5043902 
H    -3.6889218   -1.9544673    1.0775037 
C    -4.4339965    4.7090554   -0.9829759 
C    -3.9461603    3.7181243   -1.8505984 
C    -3.7876301    2.4048308   -1.3973988 
C    -4.1163616    2.0445932   -0.0693175 
C    -4.6050857    3.0520825    0.7893194 
C    -4.7633357    4.3674674    0.3364224 
H    -4.5538116    5.7392884   -1.3330663 
H    -3.6800390    3.9704102   -2.8829383 
H    -3.3708477    1.6516386   -2.0739791 
H    -4.8602013    2.7985922    1.8229748 
H    -5.1466404    5.1305630    1.0196196 
C    -4.1437125   -5.2989955   -2.4272375 
C    -3.7278840   -4.0943887   -3.0193366 
C    -3.5552718   -2.9504035   -2.2370964 
C    -3.8078070   -2.9777806   -0.8483528 
C    -4.1961526   -4.2011433   -0.2620054 
C    -4.3660075   -5.3503473   -1.0440426 
H    -4.2831952   -6.1957597   -3.0398064 
H    -3.5218738   -4.0517005   -4.0941835 
H    -3.1992588   -2.0287343   -2.7001430 
H    -4.3914789   -4.2421383    0.8145032 
H    -4.6774449   -6.2879568   -0.5723033 
C    -3.5022865   -0.1813521   -4.7141459 
C    -2.1841551    0.3000048   -5.3783880 
C    -2.0804298    1.8324867   -5.1746970 
C    -2.3517753   -0.0210530   -6.8860611 
C    -0.9710213   -0.3940778   -4.6927987 
C    -1.0093975   -0.5709334   -3.2933769 
C     0.1803490   -0.8891987   -5.3647853 
O     0.3331618   -0.6895340   -6.7233895 
C     0.8856694    0.5809113   -7.0877068 
C     1.1958332   -1.6461663   -4.7026187 
C     2.2470770   -2.4948390   -5.4749407 
C     3.0079244   -1.7782679   -6.6218787 
C     1.4623140   -3.6789904   -6.1043723 
C     3.3140140   -3.0653196   -4.5103403 
C     1.0972627   -1.7672758   -3.3053792 
C     0.0009198   -1.2434479   -2.5952464 
C    -0.3530087   -3.3320636   -0.5115691 
C    -0.8405713   -3.7516330    0.7414590 
C    -0.8816609   -5.1076489    1.1014703 
C    -1.4696144   -5.5528842    2.4649122 
C    -0.3702946   -6.1365593    3.3907305 
C    -2.1175740   -4.3605729    3.2059834 
C    -2.5756068   -6.6200582    2.2499455 
C    -0.3952682   -6.0491767    0.1441306 
O    -0.2577814   -7.3597917    0.5582948 
C     1.0930842   -7.7717462    0.8044020 
C    -0.1000635   -5.6793982   -1.1956875 
C    -0.0415803   -4.2977627   -1.4738295 
C     0.1484192   -6.6558984   -2.3792116 
C     1.6521748   -6.6502254   -2.7546509 
C    -0.3246046   -8.1105006   -2.1342897 
C    -0.6672282   -6.1571301   -3.6045792 
C     1.5373531   -1.1686002   -0.1416430 
C     2.2216121   -2.1197735    0.6370484 
C     3.4807911   -1.8550812    1.1844678 
C     2.1606947    0.0932006   -0.3794168 
C     3.4181632    0.3457376    0.1782945 
C     4.1117152   -0.6072750    0.9782438 
O     3.9964958    1.5732744   -0.0446395 
C     5.4179587    1.4656333   -0.2048042 
C     6.0486580    0.9236959    1.0723123 
N     5.3386230   -0.2750323    1.5184426 
C     5.9943505   -1.1496857    2.4783485 
C     1.5575833    1.1603783   -1.2361260 
C     2.2019019    1.4611372   -2.4509133 
C     1.6799962    2.4265406   -3.3617783 
O     3.3674346    0.7883484   -2.7085064 
C     3.8623578    0.8730654   -4.0456936 
C     3.7691859    2.2975084   -4.5753079 
N     2.3699276    2.7059038   -4.5409096 
C     1.9611878    3.8256723   -5.3748295 
C     0.3743929    1.8654002   -0.8890643 
C    -0.1822616    2.7705269   -1.8141436 
C     0.4669475    3.0600370   -3.0157356 
C    -1.2486034    3.0067927    1.3393921 
C    -1.9117385    2.8239011    2.5662443 
C    -2.3196182    3.9038567    3.3560919 
C    -2.8667150    3.6568298    4.7835032 
C    -1.9379786    4.3804041    5.7957684 
C    -4.3216958    4.1578149    4.9601651 
C    -2.8499001    2.1495391    5.1326098 
C    -2.1029780    5.2166913    2.8323389 
O    -2.6099523    6.2812727    3.5543568 
C    -3.7914668    6.8865203    3.0192378 
C    -1.3301700    5.4404991    1.6613537 
C    -0.9392408    4.3021380    0.9232767 
C    -0.8187408    6.8137154    1.1409870 
C     0.6734571    6.6645476    0.7215198 
C    -1.6371199    7.2253280   -0.1097119 
C    -0.8436977    7.9598497    2.1829293 
C     0.6261252    1.1258490    2.0062186 
C     1.5837174    2.1026263    2.3314019 
C     2.2236293    2.1069361    3.5764149 
C     3.3221581    3.1496068    3.8930471 
C     4.5965233    2.4077581    4.3763038 
C     2.8627717    4.1622907    4.9727458 
C     3.6914457    3.9582050    2.6270114 
C     1.8372618    1.0983992    4.5126011 
O     2.2815847    1.2284761    5.8161485 
C     1.2802489    1.7006522    6.7278322 
C     1.0394603   -0.0136175    4.1389999 
C     0.4059648    0.0576492    2.8778897 
C     0.8221272   -1.3069164    4.9699233 
C     1.7153956   -1.4629421    6.2248255 
C     1.1871762   -2.5080072    4.0547698 
C    -0.6652296   -1.4124648    5.3932877 
H    -4.3601362    0.3092698   -5.2043115 
H    -3.6257401   -1.2722189   -4.8233869 
H    -3.5601507    0.0698851   -3.6429572 
H    -2.9528815    2.3395094   -5.6249643 
H    -2.0419780    2.0834218   -4.1015038 
H    -1.1673458    2.2390029   -5.6404108 
H    -1.6145003    0.4825141   -7.5251688 
H    -3.3509831    0.3245039   -7.2050420 
H    -2.2850977   -1.1044090   -7.0767078 
H    -1.8452059   -0.1629640   -2.7153438 
H     0.1344856    1.3871574   -6.9966137 
H     1.2013213    0.4991420   -8.1389395 
H     1.7503641    0.8379307   -6.4508619 
H     3.8120716   -2.4439484   -6.9815436 
H     3.4848465   -0.8411771   -6.2900089 
H     2.3504000   -1.5577092   -7.4725505 
H     0.9525457   -4.2715690   -5.3265233 
H     0.7046780   -3.3058152   -6.8137452 
H     2.1525786   -4.3474977   -6.6501108 
H     2.8787263   -3.7388199   -3.7535087 
H     4.0475572   -3.6552834   -5.0854486 
H     3.8588764   -2.2630827   -3.9812950 
H     1.8797923   -2.2823269   -2.7448871 
H    -1.1833157   -2.9892404    1.4466173 
H     0.5030240   -5.4642501    3.4452688 
H    -0.7712370   -6.2603120    4.4127674 
H    -0.0358885   -7.1249759    3.0453006 
H    -1.3805943   -3.5920618    3.4864523 
H    -2.5860866   -4.7229760    4.1368646 
H    -2.9066250   -3.8811688    2.6006122 
H    -2.1781220   -7.5122614    1.7445867 
H    -2.9903422   -6.9244431    3.2275811 
H    -3.3993037   -6.2113448    1.6420891 
H     1.5854454   -7.1016040    1.5331985 
H     1.0348963   -8.7899481    1.2177363 
H     1.6906439   -7.7880009   -0.1249290 
H     0.2456222   -3.9722733   -2.4758321 
H     2.2824988   -6.9998150   -1.9189178 
H     1.9894277   -5.6352262   -3.0268638 
H     1.8333720   -7.3132376   -3.6195144 
H    -0.3101539   -8.6470381   -3.0996072 
H     0.3203736   -8.6695063   -1.4424866 
H    -1.3537277   -8.1366199   -1.7408542 
H    -0.4009379   -5.1334792   -3.9123507 
H    -1.7453278   -6.1697323   -3.3805921 
H    -0.4797183   -6.8213333   -4.4661540 
H     1.7696649   -3.0991684    0.8163968 
H     3.9775679   -2.6317803    1.7707615 
H     5.6283200    0.8071601   -1.0693520 
H     5.7867054    2.4792802   -0.4227449 
H     6.0309000    1.7013483    1.8602228 
H     7.1092792    0.6742476    0.8733951 
H     6.3954116   -2.0699352    2.0067626 
H     5.2927520   -1.4421754    3.2802479 
H     6.8304078   -0.6040647    2.9423004 
H     4.9044760    0.5199585   -4.0073830 
H     3.2723797    0.1957316   -4.6867753 
H     4.1262318    2.3246115   -5.6193189 
H     4.4172512    2.9719447   -3.9743112 
H     2.5827998    3.8328407   -6.2838596 
H     2.0706499    4.8054853   -4.8639517 
H     0.9085953    3.7116728   -5.6857210 
H    -1.1328618    3.2641144   -1.5961453 
H     0.0243966    3.7956007   -3.6901939 
H    -2.0691401    1.8020715    2.9208074 
H    -0.9024276    4.0092209    5.6987923 
H    -1.9373255    5.4677103    5.6256681 
H    -2.2801761    4.1858426    6.8283647 
H    -4.7143283    3.8240561    5.9371560 
H    -4.3780475    5.2549557    4.9388671 
H    -4.9825495    3.7508927    4.1740474 
H    -1.8365167    1.7183591    5.0542407 
H    -3.5273614    1.5639484    4.4845991 
H    -3.1929259    2.0162532    6.1730193 
H    -4.6512627    6.1936782    3.0750165 
H    -3.6512193    7.1968640    1.9682588 
H    -3.9960662    7.7715713    3.6403105 
H    -0.3388866    4.4425687    0.0240688 
H     1.0638482    7.6477058    0.4066909 
H     1.2845474    6.3068294    1.5686031 
H     0.8193062    5.9716462   -0.1237179 
H    -2.7034339    7.3699372    0.1358459 
H    -1.5789443    6.4504151   -0.8943264 
H    -1.2509387    8.1728884   -0.5266158 
H    -0.3811819    7.6511132    3.1343545 
H    -0.2670211    8.8102908    1.7780981 
H    -1.8551693    8.3297792    2.3983850 
H     1.7951653    2.8904338    1.6050009 
H     5.4243433    3.1264230    4.5146399 
H     4.4167091    1.8901606    5.3303444 
H     4.9063193    1.6557215    3.6304924 
H     1.8924819    4.6148911    4.7008974 
H     3.6062629    4.9749218    5.0607643 
H     2.7707150    3.6896553    5.9610578 
H     2.8581641    4.6013224    2.2932579 
H     3.9728627    3.3013362    1.7868778 
H     4.5451878    4.6192615    2.8566318 
H     0.9355877    2.7122764    6.4470294 
H     1.7535654    1.7328265    7.7206996 
H     0.4050422    1.0258974    6.7569784 
H    -0.2917913   -0.7314434    2.5731482 
H     2.7778859   -1.2886056    5.9920572 
H     1.4300819   -0.7927915    7.0478806 
H     1.6070552   -2.4976846    6.5964339 
H     0.6030589   -2.5328082    3.1217558 
H     1.0061707   -3.4535755    4.5943839 
H     2.2525490   -2.4643772    3.7733131 
H    -0.8493297   -2.3671832    5.9175817 
H    -0.9435605   -0.5901794    6.0750661 
H    -1.3416962   -1.3666827    4.5221858 
