227
Energy =
C     3.6266210   -0.2781134   -0.8627658 
C     3.7433068    0.7857673    0.0628384 
C     3.3932073    0.5873868    1.4358558 
H     3.9393381    1.8008508   -0.3037812 
Pd    1.6377209    0.1643857    0.1415012 
P     0.0457727   -0.1935110    1.8061897 
P     0.2054009    0.0618949   -1.6914299 
H     3.6006017   -1.2944070   -0.4392963 
H     3.5639899   -0.4104081    1.8609214 
C     4.4083282   -0.3073711   -5.0855682 
C     4.5444763    0.8936659   -4.3701245 
C     4.2903798    0.9291854   -2.9958029 
C     3.8884076   -0.2381472   -2.3072423 
C     3.7331925   -1.4335494   -3.0475427 
C     3.9904284   -1.4697633   -4.4208531 
H     4.6265625   -0.3364466   -6.1576370 
H     4.8524462    1.8081455   -4.8871339 
H     4.4151894    1.8707345   -2.4547193 
H     3.4075413   -2.3415020   -2.5324374 
H     3.8697650   -2.4083866   -4.9724293 
C     3.1323143    3.7603368    4.3387184 
C     2.9296330    4.0385760    2.9766082 
C     3.0121415    3.0133283    2.0308020 
C     3.3001687    1.6834428    2.4188971 
C     3.4880923    1.4147902    3.7932020 
C     3.4135624    2.4460730    4.7391215 
H     3.0737884    4.5630538    5.0811519 
H     2.7043629    5.0600059    2.6518525 
H     2.8322037    3.2399868    0.9759123 
H     3.7001914    0.3895944    4.1164621 
H     3.5823920    2.2236350    5.7972292 
C    -2.7846855   -4.4322617   -5.2456805 
C    -1.8770862   -3.1940644   -5.4745774 
C    -2.7889950   -1.9636522   -5.6894199 
C    -1.0713369   -3.4122861   -6.7831428 
C    -0.9507079   -2.9884658   -4.2478638 
C    -0.9328641   -1.7707132   -3.5455556 
C    -0.0975546   -4.0292451   -3.7676253 
O     0.0658324   -5.1459191   -4.5647002 
C     1.3371494   -5.1923724   -5.2290974 
C     0.5589118   -3.9533382   -2.5102697 
C     1.1621200   -5.1436462   -1.7135759 
C     0.4373053   -5.1588339   -0.3393369 
C     2.6785787   -4.9321525   -1.4812367 
C     0.9396435   -6.5483692   -2.3232386 
C     0.5921142   -2.6836937   -1.8995055 
C    -0.0875155   -1.5832677   -2.4340712 
C     0.9011419    1.1459468   -3.0046549 
C     1.3800655    2.4017974   -2.5932799 
C     1.7867373    3.3899370   -3.5074373 
C     2.3318210    4.7358183   -2.9580677 
C     1.1847581    5.7781630   -2.8788884 
C     2.8656975    4.5613152   -1.5136611 
C     3.5232960    5.2747926   -3.7900174 
C     1.6538947    3.0759041   -4.8941249 
O     1.9660364    4.0115636   -5.8592154 
C     1.0234127    5.0327259   -6.2038290 
C     1.2956045    1.7704033   -5.3417406 
C     0.9203567    0.8266049   -4.3666779 
C     1.2373967    1.3766777   -6.8411318 
C    -0.0142569    2.0206790   -7.4930627 
C     2.5127218    1.7945957   -7.6177409 
C     1.0928108   -0.1550451   -7.0024269 
C    -1.4118016    0.8445756   -1.3407599 
C    -1.7736536    2.0605884   -1.9517448 
C    -2.9491020    2.7289708   -1.6050543 
C    -2.2755528    0.2821570   -0.3593449 
C    -3.4451432    0.9738558   -0.0023105 
C    -3.8155887    2.2103643   -0.6187295 
O    -4.2424729    0.3986527    0.9548122 
C    -5.6092587    0.8238006    0.9440582 
C    -5.6864841    2.3468781    0.9268086 
N    -4.9970414    2.8338985   -0.2595507 
C    -5.4457642    4.0450368   -0.9276335 
C    -2.1017900   -1.0929481    0.2213024 
C    -2.9735643   -2.0803373   -0.2672050 
C    -2.9993114   -3.4045416    0.2691904 
O    -3.8372473   -1.7043757   -1.2647912 
C    -4.3640146   -2.7827506   -2.0427392 
C    -4.9247810   -3.8737532   -1.1398479 
N    -3.8554021   -4.3546987   -0.2742308 
C    -4.0063610   -5.6558630    0.3570193 
C    -1.2002865   -1.4256231    1.2706287 
C    -1.2491555   -2.7142335    1.8306306 
C    -2.1426169   -3.6778525    1.3559920 
C     0.9012679   -0.9880672    3.2219876 
C     1.7546826   -2.0651567    2.9364353 
C     2.4682253   -2.7520550    3.9343126 
C     3.4767526   -3.8396544    3.4682485 
C     4.5450015   -4.2233511    4.5219641 
C     2.7066681   -5.1042466    3.0099903 
C     4.2703159   -3.2885820    2.2480619 
C     2.2165006   -2.3545640    5.2801008 
O     2.7196347   -3.0925019    6.3334932 
C     2.0027694   -4.2999406    6.6221460 
C     1.4853057   -1.1710479    5.5941600 
C     0.8264306   -0.5130342    4.5392373 
C     1.4438045   -0.5795454    7.0260349 
C     0.7656293    0.8110309    7.0327573 
C     0.6432215   -1.4875528    7.9942297 
C     2.8902666   -0.3980959    7.5586937 
C    -0.9358281    1.1773282    2.4927888 
C    -0.7348377    2.4900353    2.0523915 
C    -1.4952362    3.5504559    2.5692329 
C    -1.3513150    4.9687653    1.9649337 
C    -2.7356705    5.4415651    1.4515710 
C    -0.3930698    4.9554048    0.7504871 
C    -0.7808727    5.9814424    2.9895390 
C    -2.4292367    3.2489069    3.6082941 
O    -3.0890242    4.3225932    4.1783999 
C    -2.6487213    4.7456382    5.4762608 
C    -2.7333365    1.9101949    3.9966265 
C    -1.9528864    0.8961398    3.4138079 
C    -3.8497042    1.4777548    4.9881098 
C    -5.0811958    2.4172396    4.9804106 
C    -3.2689362    1.3676541    6.4223423 
C    -4.3766009    0.0663914    4.6019383 
H    -3.4429572   -4.5793253   -6.1206341 
H    -2.1823725   -5.3427218   -5.1051688 
H    -3.4273846   -4.2962952   -4.3589544 
H    -3.4800559   -2.1660267   -6.5255337 
H    -3.3983598   -1.7364499   -4.7973741 
H    -2.2107452   -1.0593020   -5.9499806 
H    -0.2941270   -2.6411914   -6.9115196 
H    -1.7544813   -3.3532327   -7.6491724 
H    -0.5965753   -4.4032720   -6.8029036 
H    -1.5575864   -0.9367766   -3.8732161 
H     2.1730804   -5.1827233   -4.5053119 
H     1.4534309   -4.3337824   -5.9164551 
H     1.3558021   -6.1318995   -5.8014192 
H     0.8216507   -5.9881081    0.2805511 
H    -0.6474691   -5.2997566   -0.4799789 
H     0.5728176   -4.2207251    0.2219721 
H     3.2319700   -4.8951464   -2.4360559 
H     2.8800701   -3.9953209   -0.9329738 
H     3.0915807   -5.7615368   -0.8800530 
H    -0.1182114   -6.7206307   -2.5758862 
H     1.5429656   -6.7304126   -3.2242083 
H     1.2434145   -7.2994838   -1.5723017 
H     1.1529904   -2.5390222   -0.9685566 
H     1.4139484    2.6126134   -1.5199020 
H     0.3666263    5.3977225   -2.2428632 
H     1.5569233    6.7189431   -2.4343753 
H     0.7629053    6.0172069   -3.8650700 
H     2.0661810    4.3116274   -0.7981676 
H     3.3179117    5.5087332   -1.1749697 
H     3.6437675    3.7803463   -1.4601915 
H     3.2483065    5.5449070   -4.8172455 
H     3.9390605    6.1689826   -3.2933292 
H     4.3236638    4.5156701   -3.8501776 
H     1.3668310    6.0124049   -5.8239151 
H     0.9705444    5.0840398   -7.3049162 
H     0.0208502    4.8111468   -5.7985546 
H     0.6204983   -0.1744995   -4.6752551 
H     0.0420013    3.1182625   -7.5035289 
H    -0.9309367    1.7264449   -6.9512631 
H    -0.1096991    1.6811979   -8.5403257 
H     2.6546575    2.8832285   -7.6243617 
H     3.4076599    1.3368502   -7.1657293 
H     2.4377895    1.4383404   -8.6606158 
H     0.1336809   -0.5232783   -6.6022344 
H     1.9094740   -0.6998789   -6.4984940 
H     1.1190407   -0.4113505   -8.0753693 
H    -1.1299867    2.5031034   -2.7152090 
H    -3.1895025    3.6710786   -2.1032080 
H    -6.1187229    0.3997209    0.0573725 
H    -6.0617403    0.4094394    1.8577886 
H    -5.2351234    2.7539589    1.8548200 
H    -6.7416140    2.6664690    0.8902533 
H    -5.4739009    3.8982458   -2.0231821 
H    -4.7995352    4.9185347   -0.7096917 
H    -6.4653241    4.2789298   -0.5852901 
H    -5.1457458   -2.3444858   -2.6816076 
H    -3.5601023   -3.1948402   -2.6795885 
H    -5.2901741   -4.7119058   -1.7586005 
H    -5.7858860   -3.4781346   -0.5586429 
H    -4.6368275   -6.2887911   -0.2867701 
H    -4.4773800   -5.5952640    1.3607717 
H    -3.0248295   -6.1503853    0.4627730 
H    -0.5887932   -2.9759473    2.6611371 
H    -2.1617527   -4.6595669    1.8341251 
H     1.8705446   -2.3719243    1.8908585 
H     5.0231142   -3.3293414    4.9544959 
H     4.1431068   -4.8267729    5.3470341 
H     5.3256799   -4.8260549    4.0250338 
H     3.4108018   -5.8654663    2.6282945 
H     2.1364122   -5.5549532    3.8400842 
H     1.9931614   -4.8618505    2.2042210 
H     3.6248136   -3.0738499    1.3798711 
H     5.0114466   -4.0382585    1.9217653 
H     4.8131325   -2.3647836    2.5142848 
H     2.1076508   -5.0412907    5.8092628 
H     0.9281928   -4.0949567    6.7817938 
H     2.4436255   -4.7072536    7.5443901 
H     0.2409764    0.3840623    4.7427460 
H     0.8191541    1.2315781    8.0516370 
H     1.2636235    1.5181289    6.3477770 
H    -0.3004765    0.7556389    6.7550007 
H     1.1659482   -2.4338862    8.1929090 
H    -0.3593308   -1.7116408    7.5881883 
H     0.5113001   -0.9718865    8.9623015 
H     3.4713535    0.2619469    6.8917233 
H     2.8635858    0.0671980    8.5602842 
H     3.4136782   -1.3625533    7.6335860 
H     0.0182152    2.6663531    1.2816903 
H    -2.6436703    6.4320844    0.9701397 
H    -3.1177059    4.7259100    0.7042801 
H    -3.4636521    5.5146818    2.2733511 
H     0.6345829    4.6831447    1.0445193 
H    -0.3539971    5.9661515    0.3088834 
H    -0.7322620    4.2563899   -0.0340889 
H     0.1426068    5.5924851    3.4534465 
H    -1.5039166    6.2144004    3.7829520 
H    -0.5350930    6.9296503    2.4782545 
H    -2.8789724    5.8200276    5.5557721 
H    -1.5621934    4.5892473    5.5991409 
H    -3.1885837    4.2082584    6.2770019 
H    -2.1426859   -0.1479284    3.6717000 
H    -4.8703364    3.4199354    5.3729764 
H    -5.4757900    2.5390053    3.9572989 
H    -5.8773906    1.9694151    5.6006701 
H    -2.4631605    0.6139224    6.4519084 
H    -4.0573202    1.0524044    7.1292933 
H    -2.8493062    2.3204241    6.7813488 
H    -5.2730658   -0.1642731    5.2027090 
H    -4.6390318    0.0134144    3.5329760 
H    -3.6405013   -0.7293903    4.8058390 
