227
Energy =
C    -4.0297851    0.9446871    0.0201726 
C    -4.0370659   -0.0416004   -1.0160183 
C    -3.7465958   -1.3964275   -0.7419229 
H    -4.1207525    0.2866586   -2.0599380 
Pd   -2.0269592   -0.0113786   -0.1278351 
P    -0.2116924   -1.3394638   -0.7818912 
P    -0.6273060    1.6184355    0.7388677 
H    -4.3214030    0.6244041    1.0312187 
H    -3.8798920   -1.7284244    0.2986345 
C    -4.4791461    5.1578715   -0.7698545 
C    -3.9383469    4.3139837   -1.7530969 
C    -3.7876849    2.9462123   -1.5021971 
C    -4.1803923    2.3855798   -0.2641064 
C    -4.7197884    3.2477928    0.7151673 
C    -4.8684051    4.6164505    0.4640390 
H    -4.5948216    6.2289993   -0.9640410 
H    -3.6227990    4.7245640   -2.7185435 
H    -3.3297500    2.3109154   -2.2663879 
H    -5.0257758    2.8359024    1.6818667 
H    -5.2940368    5.2636094    1.2357909 
C    -3.4739825   -4.6947265   -3.4916836 
C    -3.4826873   -3.3815058   -3.9894696 
C    -3.5779320   -2.2931007   -3.1172447 
C    -3.6601257   -2.4927068   -1.7202060 
C    -3.6574330   -3.8211945   -1.2375412 
C    -3.5665394   -4.9102409   -2.1087260 
H    -3.3985375   -5.5431634   -4.1797405 
H    -3.4159396   -3.2050516   -5.0680867 
H    -3.5820055   -1.2809131   -3.5293498 
H    -3.7245134   -3.9955094   -0.1608264 
H    -3.5658940   -5.9272549   -1.7030441 
C     3.7342288   -2.6148698   -4.0397048 
C     2.5792278   -2.8192865   -5.0635012 
C     2.3080882   -4.3438406   -5.1495411 
C     3.1024332   -2.3008142   -6.4266915 
C     1.3077686   -2.0794086   -4.5609023 
C     1.1022266   -2.0135110   -3.1711891 
C     0.3403993   -1.4238798   -5.3775510 
O     0.3812396   -1.5333767   -6.7548115 
C    -0.1464186   -2.7477722   -7.3059695 
C    -0.6563647   -0.5606717   -4.8281131 
C    -1.4990306    0.3953489   -5.7108847 
C    -2.3377277    1.3575156   -4.8372479 
C    -2.4829734   -0.3722225   -6.6287277 
C    -0.5508524    1.2695088   -6.5741722 
C    -0.8118179   -0.5622501   -3.4319633 
C     0.0138693   -1.3360359   -2.6050655 
C    -0.4731112   -3.0705828   -0.2240184 
C    -1.2388638   -3.2758418    0.9403894 
C    -1.4360633   -4.5553413    1.4832919 
C    -2.4360338   -4.7841788    2.6470876 
C    -3.4777987   -5.8541212    2.2191074 
C    -1.7401262   -5.2488822    3.9508547 
C    -3.2134238   -3.4876476    2.9726360 
C    -0.7539647   -5.6388426    0.8504108 
O    -0.7530394   -6.8581878    1.4994127 
C     0.4686093   -7.1396296    2.1971854 
C    -0.1259966   -5.4976424   -0.4158671 
C     0.0174536   -4.1854719   -0.9104733 
C     0.4045401   -6.6453568   -1.3187910 
C     1.9527049   -6.5692952   -1.3761483 
C    -0.0216357   -8.0740446   -0.9029543 
C    -0.1650195   -6.4398981   -2.7515978 
C     1.4930151   -0.9176013   -0.2464477 
C     2.2775277   -1.8596545    0.4377537 
C     3.6138293   -1.5912143    0.7525053 
C     2.0477612    0.3496157   -0.5781633 
C     3.3808286    0.6225624   -0.2138935 
C     4.2008026   -0.3533371    0.4255010 
O     3.8424287    1.8718466   -0.5158419 
C     5.2057219    2.1927523   -0.2165136 
C     6.0945250    0.9587266   -0.2388776 
N     5.5433797   -0.0417721    0.6753776 
C     6.4499572   -1.1089096    1.0794876 
C     1.3145346    1.4290811   -1.3208592 
C     1.7786019    1.7633186   -2.6090020 
C     1.2125124    2.8373187   -3.3640684 
O     2.8259715    1.0313451   -3.1014032 
C     3.0490484    1.1381004   -4.5120390 
C     3.0370398    2.5956855   -4.9485213 
N     1.7413723    3.1664221   -4.6070272 
C     1.3087168    4.3756916   -5.2907556 
C     0.2242771    2.1684708   -0.7746039 
C    -0.3792306    3.1806632   -1.5449560 
C     0.1184149    3.5284424   -2.8013797 
C    -1.3902815    3.0430380    1.6068975 
C    -2.1825564    2.6791380    2.7091025 
C    -2.6984289    3.6298738    3.5973554 
C    -3.4106037    3.1690804    4.8933718 
C    -2.5805588    3.6713905    6.1055003 
C    -4.8639606    3.6946067    5.0046605 
C    -3.4779429    1.6254605    4.9758639 
C    -2.4433632    5.0056291    3.3024141 
O    -3.0317476    5.9491169    4.1232917 
C    -4.1625177    6.6387649    3.5805196 
C    -1.5568652    5.4038999    2.2633008 
C    -1.0621221    4.3871696    1.4177351 
C    -1.0467656    6.8482655    1.9899845 
C     0.4767152    6.7989079    1.6777448 
C    -1.7770982    7.4189309    0.7467311 
C    -1.1886493    7.8301899    3.1805648 
C     0.6347895    1.1654184    1.9924041 
C     0.5022508    0.0107853    2.7646409 
C     1.3910987   -0.2812980    3.8220120 
C     1.0747932   -1.5228983    4.6992698 
C     1.8271361   -1.5937426    6.0517383 
C     1.3600514   -2.8115049    3.8865473 
C    -0.4342635   -1.4769641    5.0702954 
C     2.4782530    0.6120952    4.0043335 
O     3.4808758    0.3117623    4.9091543 
C     4.4575462   -0.6063003    4.4050520 
C     2.5750797    1.8569568    3.3104340 
C     1.6397047    2.0994411    2.2965830 
C     3.5763331    2.9591672    3.7354147 
C     3.4392449    4.2054423    2.8313131 
C     5.0583312    2.5008357    3.6821015 
C     3.2257962    3.3827157    5.1876611 
H     4.6715392   -3.0112083   -4.4662946 
H     3.8798607   -1.5494120   -3.7954059 
H     3.5602625   -3.1531312   -3.0926277 
H     3.2147139   -4.8736043   -5.4931780 
H     2.0324733   -4.7463569   -4.1602971 
H     1.4888160   -4.5824114   -5.8468576 
H     2.4501744   -2.5633857   -7.2698260 
H     4.0947864   -2.7450931   -6.6194333 
H     3.2143486   -1.2038025   -6.4222285 
H     1.8312106   -2.4767008   -2.5034029 
H    -1.0560973   -3.0663696   -6.7652931 
H     0.5982467   -3.5636301   -7.2733462 
H    -0.3943735   -2.5333020   -8.3570928 
H    -2.8661715    2.0736328   -5.4897440 
H    -1.7065630    1.9330969   -4.1385262 
H    -3.1089278    0.8229685   -4.2541795 
H    -1.9566806   -0.9601399   -7.3930571 
H    -3.1282918   -1.0489061   -6.0424002 
H    -3.1373023    0.3460831   -7.1543346 
H     0.0439761    0.6498088   -7.2616388 
H    -1.1435479    1.9857500   -7.1717307 
H     0.1365851    1.8409874   -5.9274920 
H    -1.5726265    0.0625445   -2.9566896 
H    -1.7046703   -2.4053756    1.4121703 
H    -2.9920690   -6.8160427    1.9973433 
H    -4.2064032   -6.0091920    3.0347048 
H    -4.0382179   -5.5278602    1.3253163 
H    -1.3330753   -6.2649510    3.8517161 
H    -2.4745932   -5.2638167    4.7757003 
H    -0.9265893   -4.5614665    4.2328492 
H    -3.7656484   -3.1070708    2.0949544 
H    -3.9543546   -3.6972955    3.7624235 
H    -2.5540209   -2.6851918    3.3434529 
H     0.6896981   -6.3522581    2.9417014 
H     0.3198050   -8.1031129    2.7072837 
H     1.3231251   -7.2198094    1.5000441 
H     0.5243173   -4.0386265   -1.8655868 
H     2.3978423   -6.7146253   -0.3761110 
H     2.2953578   -5.5907682   -1.7566650 
H     2.3504146   -7.3538172   -2.0444924 
H     0.2449234   -8.7659398   -1.7216333 
H     0.4875359   -8.4324615    0.0028026 
H    -1.1084160   -8.1406550   -0.7354533 
H     0.0714842   -5.4514411   -3.1761804 
H    -1.2617822   -6.5461863   -2.7490913 
H     0.2564310   -7.2041652   -3.4279485 
H     1.8546656   -2.8317119    0.7038404 
H     4.2056581   -2.3632909    1.2494219 
H     5.5208828    2.9229821   -0.9802600 
H     5.2506585    2.6744868    0.7756709 
H     7.1069428    1.2365461    0.0982513 
H     6.1721696    0.5615756   -1.2750334 
H     6.5634454   -1.8929098    0.2999865 
H     6.0911541   -1.5887317    2.0043332 
H     7.4384304   -0.6708968    1.2885811 
H     4.0284680    0.6727515   -4.6985597 
H     2.2676420    0.5689397   -5.0485138 
H     3.1785461    2.6538555   -6.0413744 
H     3.8744687    3.1430843   -4.4636531 
H     1.8091711    4.4231944   -6.2698114 
H     1.5533878    5.2965594   -4.7214891 
H     0.2192973    4.3528576   -5.4699293 
H    -1.2547507    3.7100284   -1.1631416 
H    -0.3510609    4.3494612   -3.3475203 
H    -2.3719667    1.6157920    2.8796878 
H    -1.5553767    3.2620167    6.0680889 
H    -2.5212622    4.7708990    6.1124480 
H    -3.0508210    3.3391529    7.0487040 
H    -5.3730722    3.1971654    5.8491221 
H    -4.8918145    4.7762296    5.1941785 
H    -5.4413795    3.4760557    4.0884206 
H    -2.4762822    1.1626306    4.9506922 
H    -4.0833216    1.1925019    4.1581284 
H    -3.9540244    1.3364481    5.9283352 
H    -3.9292368    7.1029380    2.6059588 
H    -4.4264127    7.4220825    4.3069763 
H    -5.0210427    5.9543151    3.4541282 
H    -0.3787549    4.6582225    0.6112741 
H     0.8491243    7.8257258    1.5198280 
H     1.0342917    6.3587696    2.5221144 
H     0.7174884    6.2239072    0.7684900 
H    -2.8644816    7.4977084    0.9172162 
H    -1.6261511    6.7697964   -0.1337462 
H    -1.3944071    8.4271671    0.5063531 
H    -0.8031348    7.3905520    4.1145515 
H    -0.5985252    8.7361844    2.9558078 
H    -2.2225064    8.1557096    3.3565299 
H    -0.3156641   -0.6801604    2.5351778 
H     1.3583919   -2.3845894    6.6645751 
H     2.8893666   -1.8542130    5.9449841 
H     1.7604857   -0.6435060    6.6046468 
H     0.7238925   -2.8730138    2.9870230 
H     1.1671527   -3.7052798    4.5066539 
H     2.4123035   -2.8478075    3.5557513 
H    -1.0907944   -1.4781705    4.1858439 
H    -0.6609321   -0.5720623    5.6600802 
H    -0.6981497   -2.3599112    5.6781970 
H     4.0106365   -1.5939957    4.1866597 
H     5.2195288   -0.7157364    5.1919468 
H     4.9234598   -0.2163766    3.4828654 
H     1.6819437    3.0266635    1.7214236 
H     3.6586137    3.9770783    1.7732829 
H     2.4270921    4.6400323    2.8826242 
H     4.1501595    4.9796723    3.1670826 
H     5.3110141    1.8518046    4.5323192 
H     5.7195005    3.3845090    3.7300461 
H     5.2791053    1.9545558    2.7487748 
H     3.9064090    4.1865227    5.5225892 
H     2.1900590    3.7620768    5.2422683 
H     3.3269634    2.5300650    5.8781120 
