227
Energy =
C    -3.9960716    0.9474562    0.0118071 
C    -4.0290509   -0.0413303   -1.0211122 
C    -3.7493832   -1.3988543   -0.7469873 
H    -4.1253065    0.2844665   -2.0646811 
Pd   -2.0051311   -0.0361976   -0.1685404 
P    -0.2208613   -1.3924770   -0.8694568 
P    -0.5878535    1.5970022    0.6682165 
H    -4.2762866    0.6324953    1.0277008 
H    -3.8711797   -1.7272340    0.2962795 
C    -4.3892826    5.1674593   -0.7741408 
C    -3.8812950    4.3135968   -1.7663765 
C    -3.7509688    2.9432493   -1.5177475 
C    -4.1316576    2.3899454   -0.2727490 
C    -4.6400722    3.2618552    0.7148635 
C    -4.7676452    4.6331131    0.4662348 
H    -4.4910092    6.2403783   -0.9672436 
H    -3.5758528    4.7181797   -2.7375422 
H    -3.3174180    2.3000765   -2.2895424 
H    -4.9380208    2.8565955    1.6862459 
H    -5.1676324    5.2881154    1.2452300 
C    -3.5624895   -4.7005202   -3.4988316 
C    -3.6435897   -4.9154227   -2.1150170 
C    -3.7057423   -3.8257305   -1.2419659 
C    -3.6913328   -2.4973599   -1.7248275 
C    -3.6198164   -2.2981226   -3.1225235 
C    -3.5524345   -3.3871962   -3.9963198 
H    -3.5094398   -5.5497706   -4.1879253 
H    -3.6554134   -5.9327315   -1.7102831 
H    -3.7630815   -3.9994816   -0.1643147 
H    -3.6095758   -1.2857434   -3.5340545 
H    -3.4921791   -3.2109028   -5.0753866 
C     3.6425848   -2.7832766   -4.1803139 
C     2.4736142   -2.9131211   -5.1995523 
C     2.1435030   -4.4237429   -5.3218218 
C     3.0072315   -2.3790094   -6.5527436 
C     1.2336086   -2.1383232   -4.6714204 
C     1.0533791   -2.0699382   -3.2778761 
C     0.2678872   -1.4586691   -5.4708038 
O     0.2891526   -1.5545738   -6.8494584 
C    -0.2681350   -2.7485448   -7.4153586 
C    -0.7051534   -0.5807334   -4.9022411 
C    -1.5438560    0.3947622   -5.7666953 
C    -2.5508032   -0.3506078   -6.6779150 
C    -0.5906135    1.2608966   -6.6324865 
C    -2.3584851    1.3614456   -4.8753623 
C    -0.8403175   -0.5859526   -3.5042897 
C    -0.0142155   -1.3751342   -2.6931656 
C    -0.4917749   -3.1262139   -0.3261328 
C    -0.0379286   -4.2408292   -1.0375467 
C    -0.1673763   -5.5543860   -0.5418686 
C     0.3240069   -6.7015708   -1.4673996 
C    -0.2985382   -6.4910668   -2.8769501 
C     1.8692400   -6.6305138   -1.5825751 
C    -0.0910250   -8.1301005   -1.0395085 
C    -0.7430331   -5.6971346    0.7486307 
O    -0.7222388   -6.9188998    1.3930603 
C     0.5244387   -7.2096594    2.0406867 
C    -1.3921126   -4.6119914    1.4129781 
C    -1.2097288   -3.3314059    0.8681169 
C    -2.3417355   -4.8385398    2.6177691 
C    -3.4062843   -5.9020767    2.2329462 
C    -1.5891765   -5.3072213    3.8883690 
C    -3.0982821   -3.5390247    2.9781070 
C     1.4820829   -0.9972019   -0.3197006 
C     2.2431965   -1.9388956    0.3908899 
C     3.5448808   -1.6468712    0.8088087 
C     2.0402938    0.2796159   -0.6038951 
C     3.3372523    0.5730082   -0.1468016 
C     4.1240340   -0.3853437    0.5616258 
O     3.8116517    1.8234758   -0.4333579 
C     4.9964618    2.2272776    0.2569041 
C     6.0174157    1.0990306    0.2933521 
N     5.4184464   -0.0509098    0.9645967 
C     6.3217388   -1.0994182    1.4169397 
C     1.3392999    1.3566433   -1.3804079 
C     1.8251099    1.6637008   -2.6653113 
C     1.2849553    2.7372932   -3.4404231 
O     2.8662169    0.9076722   -3.1320639 
C     3.1087107    0.9950038   -4.5409400 
C     3.1269811    2.4472622   -4.9946060 
N     1.8357793    3.0437264   -4.6796625 
C     1.4437137    4.2606639   -5.3746018 
C     0.2586784    2.1208602   -0.8553378 
C    -0.3223990    3.1315434   -1.6438655 
C     0.1955342    3.4530247   -2.8994489 
C    -1.3153562    3.0544277    1.5141891 
C    -2.0825354    2.7396262    2.6425025 
C    -2.4948126    3.7120087    3.5702722 
C    -3.0954011    3.1914550    4.9070298 
C    -3.1541010    4.2334216    6.0510789 
C    -4.5094926    2.6066616    4.6656777 
C    -2.1700316    2.0496795    5.4245710 
C    -2.2367436    5.0691324    3.2236789 
O    -2.7543324    6.0931861    3.9925516 
C    -4.1558569    6.3418556    3.8418546 
C    -1.3867679    5.4222373    2.1330008 
C    -0.9288585    4.3857072    1.3019580 
C    -0.9056710    6.8747718    1.8938094 
C     0.1027614    6.9461256    0.7228348 
C    -2.0894108    7.8096788    1.5368667 
C    -0.1857684    7.3996425    3.1646716 
C     0.6760995    1.1803142    1.9387155 
C     1.5758286    2.1937722    2.3167247 
C     2.4413609    2.0335743    3.4043807 
C     3.2107052    3.2522690    3.9770156 
C     4.7355633    3.0339541    4.1506239 
C     2.5881885    3.5573734    5.3681778 
C     3.0142399    4.5014040    3.0861924 
C     2.4206383    0.7686974    4.0702944 
O     3.3852891    0.5450551    5.0367469 
C     4.4985089   -0.2123896    4.5471795 
C     1.4424483   -0.2210509    3.8002812 
C     0.5945005    0.0094373    2.6928964 
C     1.1690050   -1.4917344    4.6517518 
C     1.4994195   -2.7545290    3.8176331 
C    -0.3423345   -1.4958760    5.0159786 
C     1.9182312   -1.5783438    6.0039221 
H     4.5604470   -3.2029446   -4.6262091 
H     3.8329824   -1.7323170   -3.9061989 
H     3.4545413   -3.3431077   -3.2484691 
H     3.0286808   -4.9789250   -5.6809187 
H     1.8555658   -4.8386949   -4.3414783 
H     1.3142724   -4.6153584   -6.0213086 
H     2.3341370   -2.5830688   -7.3955483 
H     3.9756249   -2.8628305   -6.7703437 
H     3.1714822   -1.2891044   -6.5156113 
H     1.7830138   -2.5488092   -2.6220940 
H    -0.5540835   -2.5024018   -8.4498872 
H    -1.1591591   -3.0774552   -6.8504944 
H     0.4718272   -3.5689518   -7.4358708 
H    -3.2055399    0.3810470   -7.1841954 
H    -3.1940342   -1.0274006   -6.0889892 
H    -2.0440206   -0.9350570   -7.4578400 
H     0.1224969    1.8034777   -5.9887578 
H    -0.0218518    0.6384748   -7.3392481 
H    -1.1757965    2.0006006   -7.2084077 
H    -1.7112715    1.9230738   -4.1801193 
H    -2.8849632    2.0895664   -5.5159865 
H    -3.1297225    0.8324010   -4.2871775 
H    -1.5843655    0.0482725   -3.0151690 
H     0.4312232   -4.0922882   -2.0115124 
H    -0.0782693   -5.5011612   -3.3068666 
H     0.0969032   -7.2531745   -3.5711462 
H    -1.3942680   -6.5977372   -2.8331159 
H     2.2008930   -5.6514387   -1.9711471 
H     2.2388777   -7.4131964   -2.2689430 
H     2.3511359   -6.7819018   -0.6007149 
H    -1.1706096   -8.1931331   -0.8294944 
H     0.1402982   -8.8203092   -1.8702425 
H     0.4520960   -8.4936284   -0.1557930 
H     0.7784066   -6.4276288    2.7802883 
H     0.3912549   -8.1752941    2.5510806 
H     1.3507529   -7.2898819    1.3103586 
H    -1.6488979   -2.4599642    1.3632621 
H    -2.9359495   -6.8662675    1.9890102 
H    -4.0012560   -5.5702638    1.3637121 
H    -4.1009128   -6.0547035    3.0781288 
H    -2.2821861   -5.3107445    4.7485556 
H    -1.1992216   -6.3283238    3.7733320 
H    -0.7541701   -4.6285049    4.1268389 
H    -3.6834153   -3.1531349    2.1242748 
H    -2.4195817   -2.7418340    3.3238945 
H    -3.8075227   -3.7473732    3.7968736 
H     1.8247085   -2.9245713    0.6101591 
H     4.1171600   -2.4173073    1.3301237 
H     5.3821609    3.1017030   -0.2897328 
H     4.7313943    2.5299035    1.2854904 
H     6.9046065    1.4239675    0.8635711 
H     6.3445110    0.8516680   -0.7400438 
H     6.5509722   -1.8394580    0.6209323 
H     5.8907176   -1.6382782    2.2771686 
H     7.2633841   -0.6341948    1.7478053 
H     4.0819699    0.5109864   -4.7107256 
H     2.3231501    0.4339549   -5.0803998 
H     3.2855748    2.4898984   -6.0858773 
H     3.9657391    2.9864327   -4.5033576 
H     1.9576861    4.2899452   -6.3473617 
H     1.7053460    5.1774717   -4.8062439 
H     0.3566322    4.2657829   -5.5679779 
H    -1.1904047    3.6827573   -1.2761116 
H    -0.2523580    4.2753255   -3.4615491 
H    -2.3096054    1.6850334    2.8361149 
H    -2.1921463    4.7566475    6.1715070 
H    -3.9409565    4.9876967    5.9125495 
H    -3.3786324    3.7013524    6.9923903 
H    -4.9206756    2.1948341    5.6045055 
H    -5.2100935    3.3773625    4.2990298 
H    -4.4827700    1.7903184    3.9215351 
H    -1.1346387    2.4107176    5.5533464 
H    -2.1413178    1.1830100    4.7447293 
H    -2.5375956    1.6900918    6.4016252 
H    -4.4386432    7.0378339    4.6459171 
H    -4.7484072    5.4136118    3.9305711 
H    -4.3679351    6.8091525    2.8625874 
H    -0.2490322    4.6170349    0.4820338 
H     0.4449958    7.9888157    0.6072207 
H     0.9955945    6.3223871    0.9053646 
H    -0.3497094    6.6354521   -0.2358552 
H    -2.7467663    7.9770052    2.4013749 
H    -2.6867586    7.3893634    0.7088308 
H    -1.7034822    8.7941659    1.2173746 
H     0.6894446    6.7702115    3.4031359 
H     0.1719471    8.4309855    2.9933824 
H    -0.8619892    7.4035354    4.0326418 
H     1.5659688    3.1327754    1.7604962 
H     5.2162060    3.9962626    4.4011298 
H     4.9542725    2.3283041    4.9635421 
H     5.2021801    2.6583489    3.2234446 
H     1.5075242    3.7645964    5.2719866 
H     3.0726593    4.4443385    5.8151979 
H     2.7257133    2.7039693    6.0521093 
H     1.9501240    4.7772297    2.9926979 
H     3.4222475    4.3573729    2.0694482 
H     3.5400553    5.3584791    3.5404543 
H     4.1899640   -1.2358743    4.2589879 
H     5.2282626   -0.2679859    5.3694422 
H     4.9531980    0.2772665    3.6667499 
H    -0.1525320   -0.7415413    2.4144282 
H     0.8729104   -2.8229720    2.9119709 
H     2.5552161   -2.7493640    3.4972201 
H     1.3292038   -3.6638172    4.4214944 
H    -0.5890517   -0.6267792    5.6489151 
H    -0.5920106   -2.4139180    5.5763959 
H    -0.9917483   -1.4619957    4.1265789 
H     1.4919015   -2.4218507    6.5764682 
H     2.9937366   -1.7761330    5.8891928 
H     1.7982691   -0.6603771    6.5996121 
