227
Energy =
C     3.7470318   -0.0260550   -0.6684413 
C     3.7664300    1.0283546    0.2726805 
C     3.2963265    0.8478983    1.6112977 
H     3.9764274    2.0448210   -0.0851462 
Pd    1.6697009    0.3505585    0.1815652 
P    -0.0170032   -0.1774724    1.6965118 
P     0.3065129    0.1597180   -1.6776632 
H     3.6669230   -1.0522607   -0.2761142 
H     3.4502239   -0.1315028    2.0838553 
C     5.0195474    0.1561628   -4.7724312 
C     4.2374791   -0.9141643   -4.3114370 
C     3.8300684   -0.9593399   -2.9758813 
C     4.1839337    0.0680500   -2.0710982 
C     4.9722291    1.1384881   -2.5484606 
C     5.3872798    1.1782682   -3.8839962 
H     5.3518737    0.1866961   -5.8153425 
H     3.9418070   -1.7153643   -4.9963309 
H     3.2100776   -1.7903124   -2.6285842 
H     5.2922505    1.9294276   -1.8643996 
H     6.0158216    2.0054714   -4.2297275 
C     2.7514539    4.1261299    4.3550906 
C     3.0276002    2.8352331    4.8286246 
C     3.1913845    1.7711072    3.9318773 
C     3.0955804    1.9790612    2.5378346 
C     2.8058094    3.2858986    2.0750361 
C     2.6406709    4.3454082    2.9717378 
H     2.6257227    4.9572321    5.0567814 
H     3.1257970    2.6577484    5.9043807 
H     3.4066138    0.7652238    4.3079730 
H     2.6892811    3.4701820    1.0007192 
H     2.4189887    5.3483924    2.5922360 
C     2.9890076   -4.7206861   -1.9344968 
C     1.4685991   -5.0078052   -1.8534374 
C     1.0424256   -5.0625437   -0.3601242 
C     1.1934927   -6.4213899   -2.4198815 
C     0.6698686   -3.8495519   -2.5109833 
C     0.7435487   -2.5830479   -1.8966129 
C    -0.1802972   -3.9512627   -3.6443928 
O    -0.1117187   -5.0613963   -4.4651515 
C     1.0079382   -5.0412409   -5.3616663 
C    -1.1432063   -2.9466652   -3.9656302 
C    -2.2902241   -3.2025144   -4.9725739 
C    -3.3174443   -2.0462260   -4.9372856 
C    -3.0269113   -4.5073781   -4.5679618 
C    -1.7688989   -3.3257501   -6.4268679 
C    -1.0444017   -1.7229743   -3.2868474 
C    -0.0443588   -1.5078492   -2.3212830 
C     1.0298019    1.1114439   -3.0674293 
C     0.8951589    0.7419213   -4.4079988 
C     1.3297945    1.5733759   -5.4575008 
C     1.0335269    1.0576170   -6.8942345 
C     1.3785604    2.0148564   -8.0584316 
C     1.8014522   -0.2709476   -7.1216925 
C    -0.4954527    0.7855470   -6.9890845 
C     1.9343059    2.8126190   -5.1013066 
O     2.4424218    3.6165537   -6.0995257 
C     3.8336241    3.4278464   -6.3617072 
C     2.0023515    3.2639947   -3.7489656 
C     1.5962536    2.3574292   -2.7565236 
C     2.4196649    4.6824141   -3.2654130 
C     3.7499665    4.5905175   -2.4775307 
C     2.5734089    5.7541050   -4.3712375 
C     1.3080936    5.2072448   -2.3095327 
C    -1.2920425    1.0119016   -1.3830428 
C    -1.5294389    2.2809989   -1.9417703 
C    -2.6884427    2.9995249   -1.6460064 
C    -2.2555915    0.4585990   -0.4920573 
C    -3.4114160    1.1999013   -0.1863433 
C    -3.6563221    2.4877064   -0.7572750 
O    -4.3269086    0.6191124    0.6550172 
C    -5.2536886    1.5294072    1.2612935 
C    -5.8824813    2.4349356    0.2136523 
N    -4.8216114    3.1790242   -0.4497857 
C    -5.1771385    4.3830034   -1.1862057 
C    -2.1580439   -0.9422248    0.0334244 
C    -3.0793749   -1.8644562   -0.4781571 
C    -3.1180360   -3.2277907   -0.0641744 
O    -3.9861285   -1.4348147   -1.4192621 
C    -5.2719163   -2.0415172   -1.2243367 
C    -5.1687930   -3.5509998   -1.4066469 
N    -4.0461713   -4.0802685   -0.6310378 
C    -4.0118053   -5.5092100   -0.3620381 
C    -1.2143006   -1.3834172    1.0071782 
C    -1.2476131   -2.7255829    1.4264443 
C    -2.1770634   -3.6339553    0.9088174 
C     0.8186026   -1.0253349    3.0958175 
C     0.7250782   -0.5683200    4.4179163 
C     1.4322753   -1.1883522    5.4639831 
C     1.3459219   -0.6085822    6.8992548 
C     0.6002855   -1.5821184    7.8473890 
C     2.7689351   -0.3206990    7.4475793 
C     0.5677574    0.7292032    6.9149431 
C     2.2369552   -2.3203243    5.1406609 
O     2.8390922   -2.9790022    6.1933730 
C     2.2960081   -4.2473478    6.5822421 
C     2.4783739   -2.7121505    3.7886124 
C     1.7224624   -2.0586563    2.7992296 
C     3.5188691   -3.7697092    3.3285834 
C     4.0847260   -3.3801268    1.9332609 
C     4.7487083   -3.8645052    4.2665991 
C     2.8317118   -5.1523655    3.1840268 
C    -1.0826978    1.0866193    2.4635642 
C    -0.9370180    2.4448623    2.1611255 
C    -1.7374667    3.4143128    2.7882483 
C    -1.6668557    4.8922514    2.3291492 
C    -0.7784684    5.0340451    1.0696216 
C    -1.0684797    5.8078203    3.4267869 
C    -3.0900269    5.3768784    1.9446037 
C    -2.6374017    2.9680049    3.8049893 
O    -3.3057213    3.9447693    4.5189879 
C    -2.8124822    4.2217268    5.8371392 
C    -2.8986202    1.5844961    4.0403595 
C    -2.0910411    0.6690300    3.3428509 
C    -3.9939062    1.0073816    4.9813882 
C    -4.5150253   -0.3443331    4.4129521 
C    -5.2298638    1.9294355    5.1362144 
C    -3.3868621    0.7016622    6.3759231 
H     3.5584287   -5.5362251   -1.4542076 
H     3.3274355   -4.6383983   -2.9821960 
H     3.2557338   -3.7815436   -1.4192714 
H     1.6175239   -5.8462866    0.1629780 
H     1.2121275   -4.1086015    0.1642784 
H    -0.0318750   -5.2963793   -0.2724059 
H     0.1148253   -6.6380321   -2.4694609 
H     1.6652108   -7.1592073   -1.7464084 
H     1.6214445   -6.5767297   -3.4207194 
H     1.4278638   -2.4224272   -1.0555461 
H     0.9574054   -4.1661997   -6.0368342 
H     0.9515311   -5.9684916   -5.9513883 
H     1.9671979   -5.0103052   -4.8118789 
H    -4.1700398   -2.3013419   -5.5902443 
H    -2.8885442   -1.1008008   -5.3140217 
H    -3.6991662   -1.8680479   -3.9176523 
H    -2.3693911   -5.3836329   -4.6702405 
H    -3.3601754   -4.4474376   -3.5175733 
H    -3.9137509   -4.6556575   -5.2098879 
H    -1.1516010   -2.4524879   -6.7018598 
H    -1.1755734   -4.2402682   -6.5696917 
H    -2.6238853   -3.3699930   -7.1251551 
H    -1.7389496   -0.9099011   -3.5098956 
H     0.4321978   -0.2187854   -4.6463173 
H     2.4628494    2.1608626   -8.1770485 
H     1.0054065    1.5627470   -8.9951209 
H     0.9083246    3.0020437   -7.9370307 
H     2.8912303   -0.1068490   -7.0624150 
H     1.5676482   -0.6769968   -8.1222834 
H     1.5328968   -1.0366206   -6.3725245 
H    -1.0665383    1.7168806   -6.8308660 
H    -0.7453472    0.3933333   -7.9909282 
H    -0.8377687    0.0465730   -6.2458671 
H     4.0475994    2.3816492   -6.6528371 
H     4.0909143    4.1043145   -7.1907233 
H     4.4479815    3.6766613   -5.4751847 
H     1.6719299    2.6428766   -1.7004014 
H     4.5668396    4.2183778   -3.1191892 
H     3.6594094    3.9077414   -1.6143888 
H     4.0382369    5.5858243   -2.0947960 
H     3.4608102    5.5938999   -5.0001320 
H     1.6906197    5.7961555   -5.0278069 
H     2.6914384    6.7379308   -3.8825248 
H     1.1742888    4.5734351   -1.4171399 
H     0.3374371    5.2634609   -2.8330966 
H     1.5673863    6.2216460   -1.9586104 
H    -0.8126444    2.7175912   -2.6400081 
H    -2.8452311    3.9668287   -2.1276533 
H    -6.0122275    0.9050265    1.7560148 
H    -4.7232874    2.1323218    2.0214441 
H    -6.5669160    3.1465492    0.7071084 
H    -6.4779367    1.8291211   -0.5037938 
H    -5.3628311    4.1841077   -2.2622389 
H    -4.3785623    5.1402959   -1.1013894 
H    -6.0912077    4.8072532   -0.7433609 
H    -5.6369195   -1.7790975   -0.2128446 
H    -5.9438315   -1.6019222   -1.9768891 
H    -5.0451722   -3.7933636   -2.4797938 
H    -6.1116950   -4.0213761   -1.0646748 
H    -4.6672475   -6.0221067   -1.0830157 
H    -4.3563994   -5.7574007    0.6628925 
H    -2.9884144   -5.9038493   -0.4935004 
H    -0.5491777   -3.0741020    2.1921387 
H    -2.1758364   -4.6622014    1.2784022 
H     0.0930351    0.2927586    4.6338077 
H    -0.3886426   -1.8515749    7.4354755 
H     1.1710423   -2.5042253    8.0237008 
H     0.4410968   -1.0979156    8.8275618 
H     2.6952383    0.1259328    8.4553093 
H     3.3702206   -1.2387819    7.5122612 
H     3.2988864    0.3964842    6.7967631 
H     1.0175999    1.4780179    6.2415692 
H     0.5849386    1.1408447    7.9387908 
H    -0.4891035    0.6013072    6.6292674 
H     2.4882267   -4.3579552    7.6613962 
H     2.7947244   -5.0767607    6.0483185 
H     1.2085296   -4.2912482    6.3935575 
H     1.8574187   -2.3427382    1.7514316 
H     4.8866072   -4.0856892    1.6567831 
H     3.3283752   -3.4297995    1.1327324 
H     4.5158904   -2.3633287    1.9458022 
H     4.5170236   -4.2976889    5.2478231 
H     5.1903128   -2.8675114    4.4365164 
H     5.5137538   -4.5012755    3.7887540 
H     1.9890630   -5.0921761    2.4745052 
H     3.5509773   -5.9001584    2.8039236 
H     2.4360435   -5.5196567    4.1437828 
H    -0.1933489    2.7338859    1.4153187 
H    -0.8002802    6.0839468    0.7292807 
H     0.2743337    4.7750718    1.2733376 
H    -1.1399048    4.4019370    0.2402061 
H    -1.7494375    5.9210828    4.2819019 
H    -0.8884415    6.8162718    3.0124787 
H    -0.1053566    5.4080133    3.7888770 
H    -3.7615005    5.3742526    2.8160899 
H    -3.5210437    4.7186348    1.1706356 
H    -3.0394672    6.4048156    1.5419565 
H    -1.7112397    4.1419039    5.8750174 
H    -3.2530965    3.5357024    6.5834848 
H    -3.1181454    5.2518039    6.0786446 
H    -2.2389275   -0.4033173    3.4898441 
H    -4.8151083   -0.2582876    3.3560562 
H    -3.7623094   -1.1475139    4.4810810 
H    -5.3889868   -0.6726272    5.0013241 
H    -5.0188500    2.8458152    5.7023399 
H    -6.0217862    1.3769367    5.6717842 
H    -5.6300091    2.2323208    4.1542112 
H    -4.1627688    0.2912905    7.0468617 
H    -2.5810719   -0.0477346    6.2884548 
H    -2.9622345    1.5987277    6.8537572 
