227
Energy =
C    -4.0571777    0.7087560    0.3601778 
C    -4.1270825   -0.2980648   -0.6517163 
C    -3.7585927   -1.6370087   -0.3887464 
H    -4.3257889    0.0061828   -1.6875005 
Pd   -2.0464614   -0.1860451    0.0397527 
P    -0.2276801   -1.4619457   -0.7171440 
P    -0.6498700    1.5359523    0.7110419 
H    -4.2400698    0.4003496    1.4001338 
H    -3.7828832   -1.9635635    0.6624041 
C    -4.6981089    4.8895017   -0.4593052 
C    -4.1725802    4.0517270   -1.4571271 
C    -3.9661633    2.6932753   -1.1982828 
C    -4.2809570    2.1375264    0.0641245 
C    -4.8023686    2.9930692    1.0572802 
C    -5.0118920    4.3524486    0.7968493 
H    -4.8581463    5.9533843   -0.6608797 
H    -3.9166789    4.4615389   -2.4403797 
H    -3.5265562    2.0591841   -1.9750215 
H    -5.0453348    2.5843572    2.0435451 
H    -5.4219590    4.9950324    1.5814582 
C    -3.8908139   -4.9341600   -3.1476946 
C    -3.8546589   -5.1524005   -1.7624677 
C    -3.7928500   -4.0640724   -0.8867737 
C    -3.7648493   -2.7363934   -1.3681996 
C    -3.7757128   -2.5344632   -2.7675325 
C    -3.8409380   -3.6208205   -3.6446277 
H    -3.9552206   -5.7809765   -3.8386979 
H    -3.8773013   -6.1705432   -1.3602386 
H    -3.7748720   -4.2372057    0.1923950 
H    -3.7342016   -1.5217083   -3.1773704 
H    -3.8563439   -3.4433883   -4.7251358 
C    -2.6304046   -0.5512303   -6.4790531 
C    -1.7357712    0.3164439   -5.5596867 
C    -2.6742079    1.1410374   -4.6463078 
C    -0.9220032    1.3327863   -6.4013099 
C    -0.7674447   -0.5557233   -4.7221328 
C    -0.9184988   -0.6287843   -3.3282663 
C     0.3208062   -1.2737627   -5.3078908 
O     0.3929644   -1.2717327   -6.6889076 
C     0.0274650   -2.4711004   -7.3850561 
C     1.3380376   -1.8874566   -4.5178386 
C     2.6490516   -2.5267984   -5.0570995 
C     3.7603225   -2.4561509   -3.9717644 
C     3.2137523   -1.8011438   -6.3035410 
C     2.4217164   -4.0286975   -5.3720113 
C     1.1298214   -1.8983186   -3.1270201 
C    -0.0090598   -1.3360902   -2.5339512 
C    -0.4451182   -3.2461593   -0.3335954 
C    -0.1073662   -4.2551262   -1.2401179 
C    -0.2279888   -5.6234836   -0.9273409 
C     0.1188775   -6.6401892   -2.0494886 
C    -0.3937226   -6.0940956   -3.4121051 
C     1.6595894   -6.7919099   -2.1466926 
C    -0.5487273   -8.0271525   -1.8759096 
C    -0.6567625   -5.9430787    0.3896824 
O    -0.6655170   -7.2504458    0.8359582 
C     0.6035556   -7.7742610    1.2485817 
C    -1.1573258   -4.9488804    1.2861424 
C    -1.0146235   -3.6050732    0.9022153 
C    -1.8984283   -5.3238378    2.5958929 
C    -2.4971073   -4.0691151    3.2715585 
C    -3.0753236   -6.2865951    2.2806809 
C    -0.9510237   -5.9949146    3.6243083 
C     1.4630999   -1.0586672   -0.1324666 
C     2.2057057   -2.0071163    0.5893611 
C     3.5153341   -1.7473481    1.0019584 
C     2.0538414    0.2042026   -0.4361759 
C     3.3579502    0.4637177    0.0112122 
C     4.1328912   -0.5102222    0.7138979 
O     3.8814333    1.7063931   -0.2510521 
C     5.3055820    1.7139086   -0.3924834 
C     5.9618320    1.1159922    0.8466929 
N     5.4409247   -0.2273643    1.0697456 
C     6.2652062   -1.2268454    1.7294379 
C     1.3777935    1.2624982   -1.2600510 
C     1.9348663    1.5830989   -2.5141609 
C     1.3784306    2.5969056   -3.3549979 
O     3.0442073    0.8767804   -2.9081541 
C     3.8491364    1.4956649   -3.9180780 
C     2.9817749    1.9894242   -5.0714343 
N     2.0068396    2.9316733   -4.5435330 
C     1.5589652    4.0571116   -5.3478736 
C     0.2149855    1.9643727   -0.8335116 
C    -0.3889639    2.8975531   -1.6999096 
C     0.1867564    3.2222986   -2.9273491 
C    -1.3497388    3.0704255    1.4470197 
C    -1.0317744    4.3710433    1.0497292 
C    -1.4173816    5.5032119    1.7979356 
C    -0.9326009    6.8864723    1.2740522 
C    -1.8691245    7.3654511    0.1340198 
C    -0.8183120    7.9777246    2.3688047 
C     0.4954283    6.7472410    0.6703205 
C    -2.1806385    5.2678312    2.9761270 
O    -2.6397262    6.3228841    3.7416235 
C    -3.8075531    7.0018323    3.2687437 
C    -2.4217967    3.9477468    3.4711951 
C    -2.0241533    2.8752631    2.6642108 
C    -2.9934356    3.6769232    4.8852396 
C    -3.0777273    2.1592660    5.1728529 
C    -2.0271561    4.2994099    5.9289379 
C    -4.4168348    4.2570186    5.0805496 
C     0.5899556    1.1901751    2.0230205 
C     0.4755970    0.0596315    2.8319032 
C     1.2806197   -0.1180595    3.9783088 
C     0.9451340   -1.3312739    4.8878122 
C     1.6526325   -1.3698853    6.2641098 
C     1.2603765   -2.6450241    4.1307810 
C    -0.5766645   -1.2652951    5.2067298 
C     2.2632187    0.8735489    4.2265294 
O     3.1921988    0.6880458    5.2365843 
C     4.2930567   -0.1360773    4.8411306 
C     2.3200566    2.1001231    3.4954496 
C     1.4850238    2.2149079    2.3780455 
C     3.1108977    3.3308286    4.0083138 
C     2.9298701    4.5355782    3.0573543 
C     4.6322047    3.0908499    4.1627501 
C     2.5169604    3.7165249    5.3908965 
H    -3.3807423    0.0852869   -6.9813314 
H    -2.0484710   -1.0574300   -7.2609609 
H    -3.1696418   -1.3158829   -5.8927597 
H    -3.3009644    1.8003096   -5.2709262 
H    -3.3594462    0.5005694   -4.0630400 
H    -2.1037434    1.7737832   -3.9450027 
H    -0.2922535    1.9438067   -5.7338395 
H    -1.6061527    2.0062470   -6.9483262 
H    -0.2706066    0.8246972   -7.1270281 
H    -1.7409609   -0.1104782   -2.8295904 
H     0.9213237   -3.0718608   -7.6328651 
H    -0.4607236   -2.1645965   -8.3246196 
H    -0.6719477   -3.0819683   -6.7872740 
H     4.7210024   -2.7664036   -4.4176856 
H     3.5661616   -3.1360350   -3.1246489 
H     3.8656142   -1.4360466   -3.5673601 
H     2.5565531   -1.8616724   -7.1802429 
H     3.3805591   -0.7320215   -6.0901131 
H     4.1868013   -2.2489317   -6.5712414 
H     1.6362107   -4.1897645   -6.1255276 
H     3.3557136   -4.4817193   -5.7504340 
H     2.1266996   -4.5727286   -4.4594067 
H     1.8861848   -2.3396051   -2.4754462 
H     0.2497150   -3.9731889   -2.2307951 
H     0.1017250   -5.1591662   -3.7184773 
H    -0.1930747   -6.8403302   -4.2001853 
H    -1.4777378   -5.9030775   -3.3756903 
H     2.1369794   -5.8139340   -2.3357111 
H     1.9262182   -7.4716908   -2.9758219 
H     2.0930437   -7.2001713   -1.2184244 
H    -1.6301296   -7.9247096   -1.6848981 
H    -0.4175990   -8.6007899   -2.8102915 
H    -0.1171479   -8.6230951   -1.0607663 
H     0.3909672   -8.7006427    1.8036972 
H     1.2460766   -8.0131102    0.3817847 
H     1.1341678   -7.0607111    1.9049012 
H    -1.3650952   -2.8083731    1.5643045 
H    -3.1934297   -3.5310133    2.6031292 
H    -1.7182509   -3.3639062    3.6028963 
H    -3.0677051   -4.3752439    4.1647177 
H    -3.5920565   -6.5582576    3.2184551 
H    -3.8158327   -5.8037689    1.6192538 
H    -2.7198558   -7.2081575    1.7968392 
H    -0.0281012   -5.4056036    3.7580175 
H    -0.6803278   -7.0157326    3.3211633 
H    -1.4568245   -6.0641534    4.6039845 
H     1.7615468   -2.9782159    0.8251213 
H     4.0591468   -2.5167185    1.5547357 
H     5.5880987    1.1381280   -1.2953344 
H     5.5946476    2.7675406   -0.5259163 
H     5.7719223    1.7753734    1.7171575 
H     7.0542958    1.0617693    0.6967081 
H     6.3215385   -2.1549448    1.1290562 
H     5.8841494   -1.4916397    2.7352052 
H     7.2839084   -0.8270903    1.8444133 
H     4.4093627    2.3415445   -3.4751469 
H     4.5592238    0.7221922   -4.2491539 
H     2.4887247    1.1296730   -5.5692213 
H     3.6143299    2.4995678   -5.8172157 
H     2.3256696    4.2730050   -6.1083488 
H     1.4375233    4.9545257   -4.7148799 
H     0.6000676    3.8663429   -5.8706100 
H    -1.3292523    3.3768057   -1.4165078 
H    -0.3031841    3.9587801   -3.5686765 
H    -0.4288415    4.5185121    0.1544190 
H    -1.9088912    6.6185262   -0.6784241 
H    -2.9012202    7.5251837    0.4880556 
H    -1.5026447    8.3194533   -0.2860691 
H    -0.2610435    8.8358652    1.9532979 
H    -1.7901458    8.3569186    2.7105638 
H    -0.2692640    7.6043715    3.2490868 
H     0.5239174    6.1159046   -0.2336206 
H     1.2019601    6.3284559    1.4064384 
H     0.8598233    7.7461799    0.3752915 
H    -3.9493864    7.8699240    3.9299180 
H    -4.6975621    6.3498890    3.3276848 
H    -3.6884725    7.3471792    2.2273533 
H    -2.2025600    1.8495124    2.9971161 
H    -3.4502275    2.0074685    6.2002995 
H    -3.7763737    1.6446469    4.4876767 
H    -2.0925189    1.6676792    5.0994541 
H    -1.9407428    5.3876661    5.7861134 
H    -1.0225646    3.8493384    5.8398995 
H    -2.4004729    4.1075411    6.9511433 
H    -5.0911581    3.9481734    4.2617294 
H    -4.8430555    3.8808072    6.0274431 
H    -4.4048481    5.3538401    5.1381682 
H    -0.2743847   -0.6952408    2.5709242 
H     1.1862665   -2.1705868    6.8660312 
H     2.7244740   -1.6043184    6.1910198 
H     1.5434661   -0.4194918    6.8088184 
H     0.6980070   -2.7209980    3.1848865 
H     0.9987841   -3.5162947    4.7571010 
H     2.3342345   -2.7087748    3.8828780 
H    -1.2044037   -1.2533815    4.3009699 
H    -0.8073608   -0.3559307    5.7878742 
H    -0.8724934   -2.1424720    5.8087116 
H     4.8476767    0.3225449    4.0018549 
H     3.9530886   -1.1415960    4.5280979 
H     4.9517979   -0.2258666    5.7184363 
H     1.4956519    3.1269385    1.7788066 
H     3.3171910    4.3207722    2.0448976 
H     1.8702546    4.8306141    2.9703928 
H     3.4841543    5.4022656    3.4565780 
H     4.8563095    2.3905140    4.9788070 
H     5.1326972    4.0475838    4.3949745 
H     5.0706380    2.7043177    3.2263369 
H     3.0251865    4.6155607    5.7840146 
H     1.4396949    3.9412212    5.3001743 
H     2.6481226    2.8973549    6.1161669 
