227
Energy =
C     3.7759480   -0.2238191   -0.8156563 
C     3.8627833    0.8219196    0.1329203 
C     3.4926055    0.5989806    1.4963997 
H     4.0559226    1.8453979   -0.2118696 
Pd    1.7641254    0.1733862    0.1699276 
P     0.1336340   -0.2137124    1.7863311 
P     0.3065531    0.1304755   -1.6356991 
H     3.7578355   -1.2501753   -0.4154682 
H     3.6742126   -0.4002641    1.9129972 
C     4.6971982   -0.1169282   -5.0099627 
C     4.3553706   -1.3226940   -4.3777095 
C     4.0420029   -1.3320938   -3.0153640 
C     4.0742900   -0.1422668   -2.2510706 
C     4.4062625    1.0649647   -2.9068995 
C     4.7076275    1.0773800   -4.2716641 
H     4.9521830   -0.1054857   -6.0745272 
H     4.3354803   -2.2578456   -4.9473161 
H     3.7755643   -2.2740250   -2.5239472 
H     4.4356792    2.0023392   -2.3460189 
H     4.9565481    2.0238412   -4.7618112 
C     3.1693718    3.7461741    4.4209635 
C     2.9715606    4.0319640    3.0596732 
C     3.0691239    3.0143482    2.1069116 
C     3.3709954    1.6849503    2.4876601 
C     3.5495761    1.4078336    3.8614338 
C     3.4588441    2.4315570    4.8139451 
H     3.0993044    4.5432089    5.1685106 
H     2.7384411    5.0535102    2.7411088 
H     2.8902703    3.2479139    1.0526739 
H     3.7668151    0.3819083    4.1792338 
H     3.6207409    2.2022747    5.8715530 
C     1.4982165   -4.8386224   -0.6079039 
C     1.0953199   -5.1018081   -2.0858459 
C     0.1629974   -6.3391612   -2.0585056 
C     2.4067711   -5.4062567   -2.8561623 
C     0.3802690   -3.8577688   -2.6807448 
C     0.6243733   -2.6091601   -2.0799232 
C    -0.5387341   -3.8745105   -3.7755465 
O    -0.8010945   -5.0381387   -4.4728313 
C     0.1565674   -5.5448292   -5.4104683 
C    -1.3068341   -2.7261709   -4.1456457 
C    -2.3337737   -2.7254290   -5.3117836 
C    -3.1107630   -1.3875159   -5.3651084 
C    -3.3912067   -3.8516590   -5.1864634 
C    -1.5854205   -2.8768129   -6.6617502 
C    -1.0666460   -1.5362809   -3.4401950 
C    -0.0696098   -1.4563297   -2.4558644 
C     0.9572795    1.2562377   -2.9327057 
C     1.5127643    2.4833399   -2.5252205 
C     1.9394747    3.4451989   -3.4542595 
C     2.5890509    4.7658192   -2.9671791 
C     3.9583067    4.9974445   -3.6597595 
C     1.6447028    5.9667181   -3.2290175 
C     2.8612735    4.7277249   -1.4460565 
C     1.7647684    3.1426736   -4.8403097 
O     2.0988188    4.1370610   -5.7387402 
C     1.0433646    4.8500164   -6.3954685 
C     1.3505489    1.8546415   -5.2842658 
C     0.9307778    0.9434023   -4.2945915 
C     1.3070768    1.3853629   -6.7636026 
C    -0.0871361    1.6978438   -7.3697587 
C     2.4375859    2.0000338   -7.6270394 
C     1.4995481   -0.1533246   -6.8420672 
C    -1.3313704    0.8304583   -1.2140073 
C    -1.7268480    2.0934517   -1.6908163 
C    -2.9730460    2.6351455   -1.3686007 
C    -2.2178378    0.0947579   -0.3774480 
C    -3.4732269    0.6469954   -0.0695924 
C    -3.8899149    1.9219850   -0.5643508 
O    -4.3064098   -0.0958211    0.7320089 
C    -5.6992067    0.1923607    0.5727044 
C    -5.9458555    1.6881176    0.7272631 
N    -5.1563465    2.3983735   -0.2686281 
C    -5.5897221    3.7132073   -0.7142605 
C    -1.9312518   -1.2781811    0.1634715 
C    -2.7076784   -2.3399217   -0.3319626 
C    -2.6289893   -3.6603415    0.2131223 
O    -3.5610988   -2.0530900   -1.3671892 
C    -4.6178533   -2.9953872   -1.5736840 
C    -4.0701683   -4.4188404   -1.5821607 
N    -3.4272439   -4.6688439   -0.3000950 
C    -3.3457697   -6.0244639    0.2175302 
C    -1.0124364   -1.5326451    1.2240211 
C    -0.9502262   -2.8240744    1.7773193 
C    -1.7405141   -3.8664294    1.2892019 
C     0.9517102   -0.9154928    3.2705383 
C     1.8505885   -1.9746994    3.0746025 
C     2.5002776   -2.6226548    4.1396500 
C     3.5351787   -3.7218179    3.7716717 
C     4.4187178   -3.1981270    2.6021699 
C     4.5198619   -4.0904573    4.9085425 
C     2.7899117   -4.9917588    3.2851137 
C     2.1526390   -2.1895312    5.4524843 
O     2.5822569   -2.8958795    6.5590917 
C     1.8404499   -4.0910103    6.8347042 
C     1.3908393   -1.0050628    5.6787726 
C     0.7855949   -0.3983448    4.5631889 
C     1.2428176   -0.3659191    7.0831202 
C     0.3407062   -1.2290496    8.0015632 
C     2.6386643   -0.1928766    7.7384274 
C     0.5983820    1.0383963    6.9867598 
C    -0.9280320    1.1337612    2.3961267 
C    -0.6982781    2.4575855    2.0037779 
C    -1.4621060    3.5117201    2.5300626 
C    -1.2704291    4.9520553    1.9940942 
C    -0.2695414    4.9706963    0.8154653 
C    -0.7157592    5.9069789    3.0819001 
C    -2.6240411    5.4826361    1.4555823 
C    -2.4332718    3.1873086    3.5261713 
O    -3.0821664    4.2487240    4.1298968 
C    -2.6530088    4.5936778    5.4542880 
C    -2.7751327    1.8407177    3.8498597 
C    -1.9853862    0.8343512    3.2652218 
C    -3.9391191    1.3956557    4.7782618 
C    -3.4113055    1.1656674    6.2187517 
C    -4.5097544    0.0373551    4.2802802 
C    -5.1273843    2.3899174    4.7969039 
H     1.8902226   -5.7728895   -0.1705162 
H     2.2987966   -4.0838403   -0.5142777 
H     0.6368155   -4.5053279   -0.0045908 
H     0.6617237   -7.1639627   -1.5197582 
H    -0.7708856   -6.0933582   -1.5242166 
H    -0.1138818   -6.6976758   -3.0583043 
H     2.2346990   -5.6463091   -3.9147478 
H     2.9263787   -6.2654122   -2.3949572 
H     3.0852218   -4.5360755   -2.8157250 
H     1.3454748   -2.5254827   -1.2635648 
H     0.8863997   -4.7686030   -5.6987185 
H    -0.3997970   -5.8754386   -6.3037213 
H     0.6895427   -6.4156266   -4.9874766 
H    -3.8712040   -1.4439144   -6.1628212 
H    -2.4543115   -0.5304297   -5.5969380 
H    -3.6291675   -1.1798181   -4.4123718 
H    -2.9259353   -4.8409653   -5.0764913 
H    -4.0489692   -3.6705413   -4.3210341 
H    -4.0283490   -3.8572310   -6.0888361 
H    -0.8062576   -2.1035736   -6.7679732 
H    -1.1103425   -3.8622355   -6.7631196 
H    -2.2971183   -2.7616007   -7.4989030 
H    -1.6519861   -0.6417137   -3.6583938 
H     1.5974077    2.6839265   -1.4528840 
H     3.8572012    5.0544496   -4.7523869 
H     4.4027849    5.9403474   -3.2942570 
H     4.6596423    4.1803262   -3.4145475 
H     1.5038245    6.1534379   -4.3022918 
H     2.0721779    6.8837114   -2.7850347 
H     0.6555594    5.7927869   -2.7688948 
H     3.5293207    3.8918452   -1.1735994 
H     3.3633868    5.6619531   -1.1424778 
H     1.9357002    4.6426145   -0.8544975 
H     0.8487050    4.4307791   -7.3993377 
H     0.1131048    4.8258571   -5.8007911 
H     1.3804153    5.8932774   -6.5107287 
H     0.5732511   -0.0405711   -4.5982354 
H    -0.3170691    2.7740540   -7.3672529 
H    -0.8782539    1.1840913   -6.7950686 
H    -0.1355526    1.3416162   -8.4146472 
H     2.3325655    3.0810746   -7.7837821 
H     3.4201924    1.8261900   -7.1564924 
H     2.4398440    1.5114405   -8.6172043 
H     0.6573234   -0.7089661   -6.3987830 
H     2.4224381   -0.4695762   -6.3305246 
H     1.5634033   -0.4558637   -7.9013413 
H    -1.0564570    2.6675520   -2.3359464 
H    -3.2373588    3.6214496   -1.7564571 
H    -6.0354676   -0.1527151   -0.4243268 
H    -6.2194937   -0.3836806    1.3530729 
H    -5.6895043    2.0033657    1.7597834 
H    -7.0152912    1.9070424    0.5627536 
H    -5.4525550    3.8211533   -1.8054416 
H    -5.0448785    4.5354532   -0.2093168 
H    -6.6627426    3.8229862   -0.4939442 
H    -5.3744625   -2.8845158   -0.7728135 
H    -5.0718794   -2.7289672   -2.5402851 
H    -3.3622436   -4.5458757   -2.4253800 
H    -4.8990873   -5.1339217   -1.7192631 
H    -4.1291142   -6.6320341   -0.2610174 
H    -3.5210633   -6.0359440    1.3085142 
H    -2.3645440   -6.5017722    0.0178326 
H    -0.2749315   -3.0316101    2.6102147 
H    -1.6548762   -4.8546106    1.7466449 
H     2.0422614   -2.3115248    2.0496780 
H     3.8412265   -3.0050912    1.6819644 
H     4.9388079   -2.2668583    2.8877602 
H     5.1834488   -3.9533289    2.3518634 
H     5.3286760   -4.7110402    4.4839405 
H     4.9737917   -3.1908753    5.3553076 
H     4.0523288   -4.6713364    5.7150991 
H     2.1572767   -5.4189501    4.0820404 
H     3.5135585   -5.7661077    2.9732022 
H     2.1378170   -4.7639273    2.4234645 
H     1.9994436   -4.8589302    6.0556495 
H     0.7581495   -3.8783858    6.9095976 
H     2.2118907   -4.4693030    7.7989517 
H     0.1663369    0.4885405    4.7004230 
H     0.1448829   -0.6886786    8.9451187 
H    -0.6310607   -1.4363612    7.5188878 
H     0.8186176   -2.1846931    8.2610090 
H     3.2919330    0.4304861    7.1040085 
H     3.1326190   -1.1626040    7.8948910 
H     2.5311191    0.3108473    8.7156625 
H    -0.4435823    0.9975341    6.6275754 
H     0.5821527    1.4944330    7.9916907 
H     1.1676266    1.7073749    6.3189541 
H     0.0902259    2.6504132    1.2733933 
H    -0.1993187    5.9963522    0.4135470 
H     0.7415652    4.6698583    1.1363161 
H    -0.5892825    4.3067306   -0.0066380 
H    -1.4671115    6.1342439    3.8503864 
H    -0.4185627    6.8649021    2.6182074 
H     0.1738513    5.4721612    3.5704129 
H    -3.3863839    5.5130526    2.2484916 
H    -2.9827440    4.8295621    0.6417446 
H    -2.4946828    6.5022543    1.0493875 
H    -1.5634721    4.4522390    5.5697896 
H    -3.1807280    3.9931552    6.2174181 
H    -2.9065594    5.6551998    5.6025668 
H    -2.1914262   -0.2149705    3.4890029 
H    -2.6413508    0.3744802    6.2237720 
H    -2.9624551    2.0739530    6.6513309 
H    -4.2360793    0.8434590    6.8796239 
H    -4.7375433    0.0676024    3.2033224 
H    -5.4323872   -0.1973799    4.8384852 
H    -3.8112585   -0.7997574    4.4472370 
H    -5.9825502    1.9164962    5.3105520 
H    -4.9030415    3.3296087    5.3177646 
H    -5.4428911    2.6489378    3.7716722 
