227
Energy =
C     3.7159569   -0.5966722   -1.1387257 
C     3.9754302    0.2862312   -0.0621463 
C     3.7002587   -0.1199828    1.2796599 
H     4.2415183    1.3316949   -0.2637815 
Pd    1.8346088   -0.1601755    0.0709391 
P     0.2211448   -0.3770460    1.7269963 
P     0.2731545    0.0368860   -1.6446774 
H     3.6476138   -1.6662440   -0.8844751 
H     3.8112409   -1.1906031    1.5023426 
C     4.3626712    0.0629608   -5.3355968 
C     3.9917757   -1.2024582   -4.8548259 
C     3.7655834   -1.3934257   -3.4881351 
C     3.9163080   -0.3283432   -2.5691489 
C     4.2742349    0.9427080   -3.0728339 
C     4.4889657    1.1370429   -4.4400275 
H     4.5506142    0.2145460   -6.4034340 
H     3.8816664   -2.0443223   -5.5467556 
H     3.4766827   -2.3828176   -3.1186044 
H     4.3910515    1.7871763   -2.3891980 
H     4.7604389    2.1310380   -4.8090632 
C     4.0364646    2.4405193    4.7269757 
C     4.3827405    1.0841029    4.8063173 
C     4.2709228    0.2635339    3.6784316 
C     3.8123600    0.7776896    2.4470493 
C     3.4608784    2.1457715    2.3827682 
C     3.5761453    2.9677422    3.5086449 
H     4.1202804    3.0845377    5.6086500 
H     4.7397148    0.6577008    5.7490989 
H     4.5447160   -0.7926315    3.7496630 
H     3.0719658    2.5587032    1.4452488 
H     3.2985414    4.0244363    3.4408144 
C     2.1251387   -5.6332137   -3.6234934 
C     1.1315789   -5.1443488   -2.5401928 
C     1.9423609   -4.9081261   -1.2414593 
C     0.0894973   -6.2482232   -2.2265764 
C     0.4027341   -3.8520025   -2.9850595 
C     0.6372250   -2.6542573   -2.2952464 
C    -0.5465136   -3.8201130   -4.0532632 
O    -0.7029982   -4.9883807   -4.7769374 
C    -0.1308733   -5.0500435   -6.0905612 
C    -1.3645375   -2.6787340   -4.3096787 
C    -2.5385371   -2.6142860   -5.3272489 
C    -3.3068307   -3.9528210   -5.4633072 
C    -2.0162646   -2.1585882   -6.7151202 
C    -3.5822219   -1.5568050   -4.8682986 
C    -1.0862306   -1.5217092   -3.5583810 
C    -0.0648433   -1.4830056   -2.6005968 
C     0.8657051    1.3215506   -2.8144226 
C     0.7235246    1.2131060   -4.2006116 
C     1.1257630    2.2378804   -5.0805616 
C     0.9482989    1.9906208   -6.6033674 
C     2.0297046    2.6907880   -7.4647756 
C     1.0725343    0.4745615   -6.9168257 
C    -0.4762400    2.4287492   -7.0367936 
C     1.6522520    3.4229444   -4.4915825 
O     1.9920835    4.5174551   -5.2629153 
C     0.9351837    5.3770184   -5.7087385 
C     1.9385778    3.5123711   -3.0941748 
C     1.5127454    2.4507378   -2.2804321 
C     2.7334370    4.6967205   -2.4854838 
C     3.0464871    4.4507275   -0.9912715 
C     4.0948041    4.8623263   -3.2128034 
C     1.9309865    6.0205721   -2.5752488 
C    -1.3997947    0.5941094   -1.1609094 
C    -1.9049562    1.8381180   -1.5776037 
C    -3.2001707    2.2479625   -1.2482294 
C    -2.2259851   -0.2689308   -0.3859410 
C    -3.5281114    0.1486851   -0.0786973 
C    -4.0482570    1.4120613   -0.4869089 
O    -4.3361439   -0.6924150    0.6535839 
C    -5.7020303   -0.6217002    0.2209103 
C    -6.2523219    0.7815170    0.4388220 
N    -5.3303057    1.7728754   -0.1144015 
C    -5.8341619    3.1127804   -0.3739519 
C    -1.8043655   -1.6089615    0.1421831 
C    -2.4723469   -2.7431813   -0.3523692 
C    -2.2645819   -4.0487769    0.1932387 
O    -3.3564069   -2.5474710   -1.3854650 
C    -4.3150632   -3.5926123   -1.5818019 
C    -3.6224737   -4.9503515   -1.6060221 
N    -2.9398235   -5.1359617   -0.3337630 
C    -2.8202386   -6.4579946    0.2603495 
C    -0.8775918   -1.7638862    1.2180504 
C    -0.7090978   -3.0416184    1.7832856 
C    -1.3830284   -4.1594546    1.2891010 
C     0.9336346   -0.8595058    3.3497697 
C     0.7002272   -0.0994069    4.5018617 
C     1.2091796   -0.4750834    5.7568149 
C     0.8990391    0.4206115    6.9851879 
C    -0.1952094   -0.2515560    7.8540651 
C     2.1612145    0.7020648    7.8401534 
C     0.3518619    1.7998821    6.5383683 
C     1.9441033   -1.6944264    5.8306686 
O     2.3666111   -2.1029406    7.0799976 
C     1.6687526   -3.1592782    7.7498911 
C     2.3187472   -2.4195035    4.6572370 
C     1.7936293   -1.9654634    3.4346709 
C     3.2480944   -3.6639618    4.6378622 
C     4.4094178   -3.5574453    5.6588538 
C     2.4057872   -4.9435806    4.8865084 
C     3.9174396   -3.8371439    3.2470969 
C    -0.8397126    1.0499675    2.1388588 
C    -2.0113558    0.8468824    2.8911850 
C    -2.7033535    1.9238767    3.4626411 
C    -4.0270571    1.6943277    4.2315786 
C    -4.4800857    0.2198082    4.1169781 
C    -5.1288284    2.5867673    3.6004538 
C    -3.8918386    2.0216932    5.7398158 
C    -2.1659914    3.2302561    3.2511217 
O    -2.7158970    4.2745213    3.9705368 
C    -1.8968417    4.7377391    5.0535578 
C    -1.1276640    3.4794625    2.3146288 
C    -0.4406768    2.3503505    1.8185399 
C    -0.7217636    4.8681616    1.7495110 
C    -1.6650828    6.0431016    2.1052550 
C    -0.7611868    4.7624017    0.1992643 
C     0.7174735    5.2195902    2.1995838 
H     2.7164184   -6.4815886   -3.2347984 
H     1.6082811   -5.9779482   -4.5293710 
H     2.8280541   -4.8289223   -3.9052606 
H     2.3963969   -5.8624363   -0.9236832 
H     2.7674720   -4.1877809   -1.3877305 
H     1.3019337   -4.5454842   -0.4178431 
H    -0.5967369   -5.8974252   -1.4381679 
H     0.6001920   -7.1580841   -1.8631154 
H    -0.5019526   -6.5072594   -3.1170261 
H     1.3619421   -2.6185306   -1.4794038 
H     0.2028121   -6.0884328   -6.2493617 
H     0.7314831   -4.3663998   -6.1827413 
H    -0.8820298   -4.7998929   -6.8617157 
H    -4.1878010   -3.7973054   -6.1104191 
H    -3.6653083   -4.3020721   -4.4807389 
H    -2.7044153   -4.7607474   -5.8972029 
H    -1.5631181   -1.1553499   -6.6445244 
H    -1.2557544   -2.8403391   -7.1252497 
H    -2.8516969   -2.1050417   -7.4361363 
H    -3.8789950   -1.7095359   -3.8175016 
H    -3.2058542   -0.5241193   -4.9651291 
H    -4.4788701   -1.6319058   -5.5072260 
H    -1.6966767   -0.6278242   -3.6997801 
H     0.2950532    0.2997775   -4.6133842 
H     3.0396112    2.4354399   -7.1008961 
H     1.9415116    2.3375802   -8.5072090 
H     1.9462012    3.7849526   -7.4726726 
H     2.0213096    0.0633949   -6.5374439 
H     1.0378666    0.3280584   -8.0100098 
H     0.2495569   -0.1189138   -6.4875946 
H    -0.6612324    3.4987383   -6.8543331 
H    -0.6221640    2.2360363   -8.1150388 
H    -1.2393554    1.8570019   -6.4787403 
H     0.5596430    5.0665140   -6.7004941 
H     0.0990455    5.3893874   -4.9871290 
H     1.3619684    6.3890858   -5.7960151 
H     1.6943078    2.4793870   -1.2019403 
H     3.6287868    3.5248585   -0.8408687 
H     2.1345674    4.3919243   -0.3751612 
H     3.6526880    5.2869861   -0.6038829 
H     4.7261152    3.9677774   -3.0715880 
H     3.9564327    5.0298129   -4.2907108 
H     4.6390556    5.7250607   -2.7885986 
H     0.9080053    5.8905822   -2.1826732 
H     1.8675620    6.3898103   -3.6075486 
H     2.4316790    6.8011779   -1.9749135 
H    -1.2804175    2.4996290   -2.1844512 
H    -3.5568157    3.2186903   -1.6004332 
H    -5.7533241   -0.9056603   -0.8482486 
H    -6.2586907   -1.3584676    0.8196498 
H    -6.4142177    0.9604951    1.5194018 
H    -7.2352880    0.8654013   -0.0647098 
H    -6.0401175    3.2864663   -1.4501260 
H    -5.1126786    3.8736803   -0.0261730 
H    -6.7708518    3.2541095    0.1869753 
H    -5.0662985   -3.5640172   -0.7690678 
H    -4.8076849   -3.3708220   -2.5405684 
H    -2.9162877   -4.9966358   -2.4603554 
H    -4.3722456   -5.7485367   -1.7370830 
H    -1.8010540   -6.8812931    0.1574251 
H    -3.5249241   -7.1361899   -0.2443333 
H    -3.0770025   -6.4280226    1.3354906 
H    -0.0442382   -3.1780972    2.6383666 
H    -1.2139112   -5.1306463    1.7599821 
H     0.0968500    0.8032210    4.4197696 
H    -1.0952971   -0.4670802    7.2508733 
H     0.1537057   -1.1930598    8.3022189 
H    -0.4877318    0.4224641    8.6795008 
H     1.8840177    1.3316037    8.7046863 
H     2.6236161   -0.2233479    8.2093279 
H     2.9090017    1.2528735    7.2461475 
H     1.0550962    2.3151338    5.8603328 
H     0.2091477    2.4347849    7.4300115 
H    -0.6250839    1.7224325    6.0311777 
H     1.5542059   -2.8639813    8.8065373 
H     2.2552800   -4.0958813    7.7093808 
H     0.6725570   -3.3297112    7.3057340 
H     2.0582688   -2.4909726    2.5144345 
H     5.0955363   -4.4116060    5.5207211 
H     4.9846970   -2.6289845    5.4954402 
H     4.0696075   -3.5532047    6.7019759 
H     1.6304317   -5.0488096    4.1062856 
H     1.8994186   -4.9303607    5.8624542 
H     3.0526126   -5.8388517    4.8514102 
H     4.4876292   -2.9382182    2.9532300 
H     4.6264110   -4.6810449    3.2932708 
H     3.1937167   -4.0694070    2.4465867 
H    -2.3588835   -0.1767653    3.0477115 
H    -5.4676579    0.1081887    4.5976850 
H    -4.5652458   -0.1063504    3.0667761 
H    -3.7840311   -0.4647294    4.6339897 
H    -4.9083282    3.6543181    3.7497612 
H    -6.1082579    2.3617809    4.0600179 
H    -5.1959183    2.3975678    2.5158106 
H    -3.7292767    3.0951335    5.9115505 
H    -3.0590335    1.4567602    6.1944960 
H    -4.8209076    1.7365093    6.2652600 
H    -1.7759261    3.9519992    5.8214420 
H    -2.4182323    5.6035268    5.4886923 
H    -0.8948003    5.0452730    4.7028907 
H     0.4264163    2.4818031    1.1622606 
H    -2.7189313    5.7957365    1.9004451 
H    -1.5847507    6.3627454    3.1537531 
H    -1.3847572    6.9093377    1.4794306 
H    -0.1080606    3.9686846   -0.1959191 
H    -0.4376000    5.7197282   -0.2451865 
H    -1.7863792    4.5459713   -0.1441129 
H     1.0386650    6.1764266    1.7506221 
H     0.7804939    5.3168015    3.2974910 
H     1.4341739    4.4407380    1.8921376 
