227
Energy =
C    -4.0159759    0.6750657    0.1049062 
C    -4.0025199   -0.2493975   -0.9850429 
C    -3.6403480   -1.6049840   -0.8049755 
H    -4.1204300    0.1389825   -2.0048971 
Pd   -1.9730612   -0.1745107   -0.1503541 
P    -0.1352801   -1.4371770   -0.8490044 
P    -0.5877370    1.4955323    0.6622890 
H    -4.2632965    0.2828191    1.1025800 
H    -3.7350639   -2.0177702    0.2106931 
C    -4.5809914    4.9197404   -0.3771647 
C    -4.0156065    4.1650915   -1.4183953 
C    -3.8384619    2.7854764   -1.2734428 
C    -4.2253005    2.1239669   -0.0840997 
C    -4.7943696    2.8957030    0.9512922 
C    -4.9720846    4.2763539    0.8055277 
H    -4.7131834    6.0008366   -0.4881926 
H    -3.7013134    4.6569708   -2.3454966 
H    -3.3596105    2.2195441   -2.0791398 
H    -5.0960980    2.4038817    1.8818578 
H    -5.4173448    4.8521988    1.6220827 
C    -3.1741245   -4.6464245   -3.8218759 
C    -3.2021575   -4.9766102   -2.4597027 
C    -3.3713645   -3.9766175   -1.4969457 
C    -3.5107187   -2.6191185   -1.8671392 
C    -3.5042948   -2.3062766   -3.2461489 
C    -3.3358601   -3.3064166   -4.2081334 
H    -3.0358281   -5.4267349   -4.5776106 
H    -3.0872994   -6.0171351   -2.1438102 
H    -3.3802300   -4.2439840   -0.4366419 
H    -3.6225211   -1.2705935   -3.5748449 
H    -3.3285079   -3.0385973   -5.2694261 
C     3.6670169   -2.7758963   -4.2710677 
C     2.4745987   -2.8720965   -5.2661555 
C     2.1153938   -4.3743724   -5.4126491 
C     2.9902495   -2.3144852   -6.6167297 
C     1.2545036   -2.0977445   -4.6954741 
C     1.1010783   -2.0660894   -3.2973808 
C     0.2770521   -1.3957114   -5.4599832 
O     0.2779955   -1.4527639   -6.8413554 
C    -0.2920813   -2.6273677   -7.4348405 
C    -0.6876618   -0.5355826   -4.8519075 
C    -1.5393662    0.4651952   -5.6755087 
C    -0.5949652    1.3610831   -6.5203876 
C    -2.3500701    1.3977553   -4.7453775 
C    -2.5528533   -0.2431308   -6.6081541 
C    -0.7982756   -0.5810196   -3.4524370 
C     0.0446484   -1.3886125   -2.6755939 
C    -0.3745489   -3.1749805   -0.3058504 
C    -1.0860193   -3.3775010    0.8907008 
C    -1.3888663   -4.6620995    1.3688131 
C    -2.1838331   -4.8393568    2.6871101 
C    -2.5585515   -3.4702942    3.2987494 
C    -3.5129999   -5.6111649    2.4775329 
C    -1.3015912   -5.6012550    3.7105962 
C    -0.9101561   -5.7711357    0.6056351 
O    -1.2862204   -7.0332807    1.0193513 
C    -2.2618052   -7.6876773    0.1983196 
C    -0.0461494   -5.6021587   -0.5123195 
C     0.1386091   -4.2858391   -0.9803843 
C     0.7583540   -6.7170551   -1.2387187 
C     0.1337220   -7.0008706   -2.6288164 
C     2.2128073   -6.2001421   -1.4503880 
C     0.9027905   -8.0381521   -0.4429468 
C     1.5489916   -0.9907461   -0.2952986 
C     2.3313910   -1.8981741    0.4394611 
C     3.6408229   -1.5937986    0.8222055 
C     2.1001876    0.2762850   -0.6459487 
C     3.4156414    0.5637002   -0.2614648 
C     4.2230810   -0.3535047    0.4741414 
O     3.9379074    1.7929067   -0.5896521 
C     5.3312007    1.7100602   -0.9186621 
C     6.1231803    1.2153194    0.2858803 
N     5.5091604    0.0040241    0.8291684 
C     6.3025852   -0.8440852    1.7065832 
C     1.3631975    1.3454463   -1.3959389 
C     1.8471570    1.7055192   -2.6675751 
C     1.2871897    2.7886953   -3.4128268 
O     2.9101191    0.9907548   -3.1575718 
C     3.1134419    1.0954570   -4.5720291 
C     3.1159983    2.5556257   -5.0015286 
N     1.8351580    3.1464303   -4.6380872 
C     1.4146271    4.3710727   -5.3022998 
C     0.2516902    2.0587628   -0.8559803 
C    -0.3474453    3.0783500   -1.6199674 
C     0.1746187    3.4578194   -2.8578144 
C    -1.3532211    2.9179772    1.5376232 
C    -2.1013815    2.5476082    2.6681765 
C    -2.5500020    3.4890152    3.6012506 
C    -3.2029267    3.0173724    4.9236130 
C    -4.6335794    3.5767700    5.1249828 
C    -3.3022145    1.4745577    4.9797391 
C    -2.2941002    3.4737097    6.0972510 
C    -2.2768236    4.8641285    3.3241160 
O    -2.8102593    5.8067252    4.1834442 
C    -3.9405501    6.5304668    3.6839486 
C    -1.4284993    5.2645281    2.2555524 
C    -1.0021707    4.2577340    1.3630688 
C    -0.8690870    6.6938342    2.0029180 
C     0.6552380    6.5835102    1.7066269 
C    -1.5715766    7.3034533    0.7624800 
C    -0.9831604    7.6733001    3.1977509 
C     0.6881774    1.1377154    1.9336957 
C     0.5481962    0.0732484    2.8254847 
C     1.3286953   -0.0136252    4.0002800 
C     1.2030359   -1.3045930    4.8530053 
C     1.3404442   -2.5177994    3.8908580 
C    -0.1853808   -1.3471476    5.5390867 
C     2.3057229   -1.5029717    5.9221447 
C     2.1824012    1.0853240    4.2796198 
O     2.7835887    1.2058954    5.5196844 
C     1.9046356    1.6893173    6.5452310 
C     2.4716731    2.0915770    3.3085605 
C     1.6939915    2.0971573    2.1443963 
C     3.6202610    3.1118613    3.4959249 
C     3.3293315    4.1101084    4.6453624 
C     3.8367285    3.9412900    2.2084894 
C     4.9319738    2.3372163    3.7911607 
H     4.5688221   -3.2013754   -4.7433409 
H     3.8778339   -1.7303678   -3.9890405 
H     3.4935510   -3.3456643   -3.3427502 
H     2.9881980   -4.9423188   -5.7820312 
H     1.8177919   -4.7987886   -4.4385011 
H     1.2816787   -4.5357630   -6.1143972 
H     2.2973116   -2.4829451   -7.4510408 
H     3.9447180   -2.8102740   -6.8664709 
H     3.1764226   -1.2290977   -6.5536963 
H     1.8446588   -2.5593417   -2.6685616 
H     0.4576382   -3.4336866   -7.5308749 
H    -0.6334741   -2.3398610   -8.4417314 
H    -1.1481154   -2.9962906   -6.8419868 
H    -1.1865264    2.1170133   -7.0681173 
H    -0.0311695    0.7622700   -7.2513553 
H     0.1222539    1.8856695   -5.8671374 
H    -3.1127412    0.8452921   -4.1679395 
H    -1.7001653    1.9391899   -4.0375367 
H    -2.8859602    2.1439321   -5.3567965 
H    -3.2140913   -0.9183785   -6.0390532 
H    -3.1900549    0.5123858   -7.1014965 
H    -2.0533491   -0.8198880   -7.3980513 
H    -1.5380160    0.0347104   -2.9332563 
H    -1.4514932   -2.4965995    1.4264616 
H    -3.2347463   -2.8939292    2.6410117 
H    -3.0832955   -3.6312067    4.2556512 
H    -1.6713864   -2.8534842    3.5108896 
H    -4.1051926   -5.1774113    1.6516548 
H    -4.1227058   -5.5453225    3.3960435 
H    -3.3410309   -6.6762624    2.2732595 
H    -0.3757267   -5.0390155    3.9190286 
H    -1.8499550   -5.7266411    4.6616719 
H    -1.0308603   -6.5977756    3.3287338 
H    -1.8882654   -7.8527339   -0.8276524 
H    -2.4628850   -8.6597397    0.6727581 
H    -3.1967589   -7.1003419    0.1496672 
H     0.7123937   -4.1326796   -1.8950302 
H     0.0501492   -6.0762154   -3.2261637 
H    -0.8790007   -7.4293372   -2.5382506 
H     0.7574320   -7.7205417   -3.1884906 
H     2.8213180   -6.9949356   -1.9154098 
H     2.2642020   -5.3212593   -2.1133346 
H     2.6769986   -5.9282261   -0.4862365 
H    -0.0232574   -8.6274699   -0.4014060 
H     1.2358792   -7.8507152    0.5907458 
H     1.6632961   -8.6640980   -0.9421425 
H     1.9160570   -2.8719492    0.7133837 
H     4.2141023   -2.3325691    1.3871271 
H     5.4518507    1.0340169   -1.7869956 
H     5.6460456    2.7253685   -1.2031649 
H     6.1702529    2.0089544    1.0571637 
H     7.1609378    0.9934580   -0.0293612 
H     6.6045825   -1.7899879    1.2131458 
H     5.7424786   -1.0905798    2.6269570 
H     7.2124549   -0.2986424    1.9995180 
H     4.0830740    0.6164512   -4.7740026 
H     2.3152130    0.5385769   -5.0971010 
H     3.2423248    2.6178224   -6.0962572 
H     3.9694278    3.0872179   -4.5274086 
H     1.9376778    4.4441589   -6.2677633 
H     1.6448768    5.2769111   -4.7043402 
H     0.3295159    4.3520358   -5.5074285 
H    -1.2351472    3.5923127   -1.2439140 
H    -0.2912902    4.2847909   -3.3978859 
H    -2.3034820    1.4846320    2.8264744 
H    -4.6214689    4.6553109    5.3332770 
H    -5.2645186    3.3904565    4.2375354 
H    -5.1091771    3.0767291    5.9873130 
H    -3.7345904    1.1758960    5.9500272 
H    -3.9588099    1.0721681    4.1864675 
H    -2.3138459    0.9914148    4.8927499 
H    -2.2044139    4.5710652    6.1210947 
H    -1.2840695    3.0378405    5.9937962 
H    -2.7194842    3.1352713    7.0594989 
H    -3.7508536    6.9360844    2.6742481 
H    -4.1192277    7.3572474    4.3879983 
H    -4.8369137    5.8849358    3.6450209 
H    -0.3419921    4.5306356    0.5379117 
H     1.0749154    7.5941732    1.5624159 
H     1.1812642    6.1103838    2.5538048 
H     0.8804592    6.0048970    0.7957593 
H    -2.6556343    7.4222754    0.9335581 
H    -1.4432129    6.6590138   -0.1252706 
H    -1.1505193    8.2987177    0.5323281 
H    -0.6119404    7.2200083    4.1307751 
H    -0.3669336    8.5625938    2.9761501 
H    -2.0076587    8.0287620    3.3719749 
H    -0.1917288   -0.7038471    2.6042824 
H     1.2452512   -3.4566926    4.4634105 
H     0.5780952   -2.5328878    3.0962380 
H     2.3292732   -2.5079056    3.4025762 
H    -0.2953754   -0.5274014    6.2699398 
H    -0.3234625   -2.3033801    6.0747142 
H    -1.0016050   -1.2469241    4.8039909 
H     2.2034410   -0.8289053    6.7837611 
H     3.3121295   -1.3629868    5.4954556 
H     2.2332113   -2.5367454    6.3049511 
H     2.5175116    1.8010207    7.4524167 
H     1.0810532    0.9790454    6.7429561 
H     1.4696767    2.6666743    6.2656395 
H     1.8406573    2.8767527    1.3929606 
H     2.3390431    4.5821139    4.5160936 
H     3.3649641    3.6220289    5.6296182 
H     4.0912359    4.9102881    4.6428821 
H     4.0053209    3.3010597    1.3270025 
H     4.7200592    4.5900674    2.3422678 
H     2.9765580    4.5981858    1.9929331 
H     5.7821320    3.0407138    3.8515339 
H     4.8629193    1.7883065    4.7425232 
H     5.1341032    1.6108808    2.9855285 
