227
Energy =
C     3.7788905   -0.1822454   -0.7388074 
C     3.8395091    0.8869423    0.1839821 
C     3.4215326    0.6974222    1.5407355 
H     4.0550503    1.9001416   -0.1778545 
Pd    1.7339691    0.2604273    0.1774329 
P     0.0911248   -0.2090730    1.7461567 
P     0.3020603    0.1731812   -1.6486871 
H     3.7326156   -1.1958578   -0.3104122 
H     3.5865557   -0.2919909    1.9877085 
C     4.8690046   -0.2142296   -4.8914839 
C     4.8335594    1.0065063   -4.1981806 
C     4.4738123    1.0394320   -2.8481027 
C     4.1277579   -0.1477846   -2.1634478 
C     4.1375800   -1.3650023   -2.8849672 
C     4.5115156   -1.4003929   -4.2314791 
H     5.1704319   -0.2391297   -5.9435696 
H     5.0920688    1.9377801   -4.7119150 
H     4.4677164    1.9963052   -2.3202336 
H     3.8578941   -2.2922589   -2.3731839 
H     4.5268363   -2.3554833   -4.7672606 
C     3.0137895    3.9143093    4.3787278 
C     3.2833441    2.6079180    4.8118281 
C     3.4040458    1.5629528    3.8860571 
C     3.2727368    1.8080897    2.5006364 
C     2.9904956    3.1299307    2.0791942 
C     2.8662860    4.1694925    3.0051409 
H     2.9211273    4.7289075    5.1045327 
H     3.4083577    2.4030617    5.8796339 
H     3.6099235    0.5443845    4.2334010 
H     2.8465614    3.3409137    1.0143824 
H     2.6499037    5.1845934    2.6557971 
C    -3.4618968   -1.8991961   -4.7860229 
C    -2.3430313   -2.9296089   -5.1066292 
C    -1.7734771   -2.5537634   -6.5000276 
C    -3.0250593   -4.3206068   -5.1628581 
C    -1.2260171   -2.8471596   -4.0297695 
C    -1.0235471   -1.6137380   -3.3815455 
C    -0.3850362   -3.9295249   -3.6292944 
O    -0.4551014   -5.1586169   -4.2582684 
C     0.2022991   -5.2986976   -5.5248325 
C     0.5065995   -3.8309299   -2.5183305 
C     1.2532129   -5.0513560   -1.9265735 
C     2.0181570   -4.6608867   -0.6395466 
C     2.2931386   -5.6237864   -2.9226522 
C     0.2284188   -6.1460962   -1.5301409 
C     0.6670853   -2.5669728   -1.9329014 
C    -0.0540731   -1.4550622   -2.3826793 
C     1.0077126    1.2079363   -2.9879549 
C     1.0357627    0.8154008   -4.3282093 
C     1.5064143    1.6649339   -5.3499862 
C     1.5233002    1.1039899   -6.7982393 
C     0.1599483    1.3905482   -7.4826196 
C     2.6962660    1.6554400   -7.6473201 
C     1.7028912   -0.4395694   -6.7750703 
C     1.9055498    2.9775687   -4.9653219 
O     2.2957635    3.9143059   -5.9026809 
C     1.2856679    4.5833603   -6.6681344 
C     2.0071986    3.3660887   -3.5928003 
C     1.5477646    2.4561571   -2.6296260 
C     2.6084367    4.7236900   -3.1479060 
C     1.6873732    5.8962860   -3.5718716 
C     2.7499261    4.7971195   -1.6090234 
C     4.0276098    4.9171769   -3.7443583 
C    -1.3166900    0.9534277   -1.2858867 
C    -1.6367738    2.2077463   -1.8372643 
C    -2.8268698    2.8620024   -1.5161094 
C    -2.2353934    0.3345978   -0.3875190 
C    -3.4229048    1.0120736   -0.0580080 
C    -3.7501120    2.2876595   -0.6170640 
O    -4.2745633    0.3891343    0.8202378 
C    -5.6279723    0.8565630    0.8106980 
C    -5.6671373    2.3798052    0.8658157 
N    -4.9480645    2.8987690   -0.2877531 
C    -5.3632493    4.1411683   -0.9187959 
C    -2.0612301   -1.0659583    0.1300113 
C    -2.9551864   -2.0349955   -0.3562525 
C    -2.9136764   -3.3995828    0.0655481 
O    -3.8943414   -1.6270888   -1.2742210 
C    -5.0957063   -2.4056139   -1.2591544 
C    -4.7662637   -3.8789443   -1.4609058 
N    -3.8395612   -4.3061197   -0.4216189 
C    -3.7236184   -5.7251630   -0.1219419 
C    -1.0843453   -1.4561066    1.0923822 
C    -1.0322123   -2.7994269    1.5060270 
C    -1.9146014   -3.7558664    0.9988460 
C     0.9049720   -0.9970888    3.1910022 
C     0.7641054   -0.5075766    4.4981670 
C     1.4071234   -1.1227725    5.5869368 
C     1.2952587   -0.5033165    7.0033064 
C     0.4745604   -1.4098894    7.9556919 
C     2.7138221   -0.2769040    7.5907594 
C     0.5882010    0.8725546    6.9531420 
C     2.1854098   -2.2875757    5.3212584 
O     2.6749200   -2.9850793    6.4079825 
C     1.9868302   -4.2045532    6.7146266 
C     2.4996469   -2.6971092    3.9920961 
C     1.8105274   -2.0434465    2.9543529 
C     3.5475995   -3.7717558    3.5895597 
C     4.6121462   -4.0639345    4.6762354 
C     2.8217331   -5.0825596    3.1912299 
C     4.3400868   -3.2622679    2.3509786 
C    -0.9757684    1.0936059    2.4373221 
C    -0.7832291    2.4360986    2.0952788 
C    -1.5827912    3.4456970    2.6537209 
C    -1.4315699    4.9062478    2.1611109 
C    -2.8074091    5.4285119    1.6743710 
C    -0.4636183    4.9851145    0.9553376 
C    -0.8646012    5.8271116    3.2705888 
C    -2.5456142    3.0575875    3.6369349 
O    -3.2421962    4.0773027    4.2600537 
C    -2.8541735    4.4186341    5.5980936 
C    -2.8375926    1.6900452    3.9220145 
C    -2.0197947    0.7319691    3.2979731 
C    -3.9682405    1.1705997    4.8540753 
C    -3.4221625    0.9901442    6.2950991 
C    -4.4467731   -0.2291004    4.3737373 
C    -5.2241973    2.0767793    4.8677655 
H    -4.3187674   -2.0722464   -5.4594261 
H    -3.8023907   -1.9812346   -3.7417287 
H    -3.1321252   -0.8587753   -4.9468835 
H    -2.5668336   -2.6239333   -7.2657981 
H    -1.3981935   -1.5161430   -6.4939372 
H    -0.9435375   -3.2080060   -6.8081905 
H    -2.3841215   -5.1039625   -5.5874363 
H    -3.9334905   -4.2524229   -5.7868120 
H    -3.3237195   -4.6542099   -4.1542204 
H    -1.6362533   -0.7507194   -3.6515031 
H     0.5512046   -6.3417820   -5.5927870 
H     1.0652903   -4.6140315   -5.6049084 
H    -0.4963983   -5.1066603   -6.3592888 
H     2.4820922   -5.5621654   -0.2042553 
H     1.3431153   -4.2277427    0.1188327 
H     2.8303569   -3.9388055   -0.8375861 
H     1.8140092   -6.1111057   -3.7823807 
H     2.9613683   -4.8269894   -3.2960540 
H     2.9166755   -6.3826672   -2.4168119 
H    -0.4645092   -5.7511161   -0.7671694 
H    -0.3558201   -6.4807550   -2.4003892 
H     0.7551145   -7.0171646   -1.1003242 
H     1.3578704   -2.4238644   -1.0990773 
H     0.6823653   -0.1826261   -4.5886388 
H    -0.0529850    2.4669922   -7.5659299 
H     0.1478428    0.9608317   -8.5005275 
H    -0.6620407    0.9305890   -6.9056409 
H     2.6147451    2.7275696   -7.8662235 
H     2.7305286    1.1137418   -8.6088542 
H     3.6562417    1.4946696   -7.1286149 
H     0.8344006   -0.9654560   -6.3466090 
H     1.8193729   -0.8026601   -7.8106880 
H     2.5965834   -0.7295770   -6.1998510 
H     1.1473008    4.0973314   -7.6508580 
H     0.3220354    4.6031326   -6.1292201 
H     1.6364572    5.6151304   -6.8341568 
H     1.5838526    2.7188790   -1.5683236 
H     0.6580493    5.7381838   -3.2033172 
H     1.6540945    6.0203423   -4.6624824 
H     2.0633356    6.8417494   -3.1413819 
H     1.7764664    4.7470713   -1.0915141 
H     3.3943093    3.9889594   -1.2199740 
H     3.2228010    5.7552254   -1.3341607 
H     4.0110479    4.8824775   -4.8429202 
H     4.7138739    4.1331753   -3.3782365 
H     4.4350820    5.8934469   -3.4262317 
H    -0.9489199    2.6892668   -2.5364542 
H    -3.0345646    3.8368022   -1.9633120 
H    -6.1369426    0.4957575   -0.1039581 
H    -6.1061752    0.4080084    1.6950406 
H    -5.2204487    2.7333889    1.8174490 
H    -6.7136130    2.7259260    0.8285749 
H    -5.3185432    4.0494325   -2.0193532 
H    -4.7420971    5.0076934   -0.6156463 
H    -6.4057109    4.3496198   -0.6329022 
H    -5.6202134   -2.2525082   -0.2959980 
H    -5.7195786   -2.0203367   -2.0800153 
H    -4.3460066   -4.0297859   -2.4760590 
H    -5.6915689   -4.4781910   -1.3883174 
H    -2.8053104   -6.1706012   -0.5532408 
H    -4.5945642   -6.2472362   -0.5464056 
H    -3.7192410   -5.9015786    0.9693548 
H    -0.3010600   -3.1130325    2.2553215 
H    -1.8340600   -4.7872891    1.3491811 
H     0.1411721    0.3707678    4.6673658 
H    -0.5070936   -1.6596694    7.5149751 
H     1.0055982   -2.3432289    8.1905754 
H     0.2956470   -0.8810891    8.9090611 
H     2.6346679    0.2103761    8.5790428 
H     3.2554278   -1.2265609    7.7095085 
H     3.3071556    0.3813175    6.9328182 
H     1.0990016    1.5751739    6.2730560 
H     0.5935128    1.3148806    7.9642645 
H    -0.4645922    0.7901080    6.6353731 
H     2.2040866   -4.9934223    5.9716186 
H     0.8939755   -4.0443915    6.7583682 
H     2.3543721   -4.5266545    7.7006724 
H     1.9924184   -2.3501495    1.9189309 
H     5.4193410   -4.6666068    4.2237773 
H     5.0548400   -3.1317985    5.0644497 
H     4.2176800   -4.6321653    5.5291520 
H     2.1038230   -4.9023227    2.3728886 
H     2.2633906   -5.5115386    4.0401858 
H     3.5520144   -5.8372873    2.8480515 
H     4.8394613   -2.3017892    2.5688484 
H     5.1180821   -3.9984528    2.0857336 
H     3.7047892   -3.1303992    1.4595954 
H    -0.0017642    2.6791073    1.3723358 
H    -2.7013241    6.4494140    1.2650173 
H    -3.1901426    4.7722116    0.8748799 
H    -3.5423939    5.4498510    2.4923346 
H     0.5638524    4.6954336    1.2319370 
H    -0.4274605    6.0262124    0.5899600 
H    -0.7973196    4.3438181    0.1207245 
H     0.0639341    5.4044375    3.6927143 
H    -1.5851992    5.9800923    4.0857360 
H    -0.6292942    6.8202387    2.8469958 
H    -1.7788626    4.2275980    5.7624309 
H    -3.4447575    3.8520744    6.3410411 
H    -3.0629078    5.4927340    5.7278804 
H    -2.1925117   -0.3302885    3.4829885 
H    -2.6016104    0.2519007    6.3030194 
H    -3.0332451    1.9285438    6.7197187 
H    -4.2216091    0.6182569    6.9609847 
H    -4.6762791   -0.2285929    3.2959814 
H    -5.3537584   -0.5151629    4.9336221 
H    -3.6961178   -1.0165854    4.5558136 
H    -6.0170044    1.5824106    5.4561443 
H    -5.0454915    3.0678152    5.3033780 
H    -5.6076352    2.2305413    3.8448382 
