227
Energy =
C    -4.0382390    0.8501399    0.1879795 
C    -4.1032590   -0.1602140   -0.8214229 
C    -3.7887517   -1.5094285   -0.5411843 
H    -4.2518133    0.1462513   -1.8649149 
Pd   -2.0453456   -0.1148246   -0.0578549 
P    -0.2597757   -1.4501703   -0.7940560 
P    -0.6228551    1.5684556    0.6630629 
H    -4.2740278    0.5562939    1.2213722 
H    -3.8604396   -1.8298965    0.5096021 
C    -4.5025801    5.0424380   -0.6999841 
C    -4.8907172    4.5303298    0.5463879 
C    -4.7392352    3.1680061    0.8304805 
C    -4.2011514    2.2837062   -0.1286451 
C    -3.8126293    2.8141238   -1.3808264 
C    -3.9627025    4.1753806   -1.6639892 
H    -4.6203077    6.1085729   -0.9196104 
H    -5.3167531    5.1951231    1.3031550 
H    -5.0430360    2.7806176    1.8072982 
H    -3.3568355    2.1582475   -2.1288217 
H    -3.6492170    4.5629396   -2.6395189 
C    -3.8195655   -4.8199254   -3.2884044 
C    -3.7774955   -3.5082899   -3.7893672 
C    -3.7565069   -2.4175561   -2.9156180 
C    -3.7784644   -2.6132900   -1.5155718 
C    -3.8081602   -3.9395574   -1.0293417 
C    -3.8276654   -5.0319837   -1.9017440 
H    -3.8455415   -5.6700859   -3.9778541 
H    -3.7638077   -3.3352839   -4.8705899 
H    -3.7219228   -1.4064189   -3.3295311 
H    -3.8197415   -4.1089584    0.0504724 
H    -3.8490610   -6.0487156   -1.4957450 
C     2.3186810   -4.1291259   -5.4314228 
C     2.5868125   -2.6326531   -5.1227001 
C     3.1729893   -1.9248154   -6.3696147 
C     3.6963078   -2.5855867   -4.0341034 
C     1.2929737   -1.9557735   -4.5903313 
C     1.0780933   -1.9595745   -3.2007778 
C     0.3031076   -1.3059692   -5.3848771 
O     0.3775222   -1.3123493   -6.7655263 
C    -0.0309813   -2.5011624   -7.4554807 
C    -0.7554462   -0.5412074   -4.8042265 
C    -1.6786962    0.3726235   -5.6486210 
C    -0.8178751    1.3449351   -6.4957994 
C    -2.5754051    1.2469320   -4.7406426 
C    -2.6130911   -0.4553897   -6.5648546 
C    -0.9156457   -0.6084345   -3.4111142 
C    -0.0411277   -1.3552880   -2.6124450 
C    -0.4996512   -3.2177274   -0.3564828 
C    -1.1256153   -3.5224755    0.8666992 
C    -1.2749988   -4.8467961    1.3098154 
C    -2.1016971   -5.1703393    2.5812585 
C    -3.2420766   -6.1599304    2.2178503 
C    -1.2335958   -5.7869659    3.7080636 
C    -2.7592416   -3.8933379    3.1524493 
C    -0.7089763   -5.8749244    0.4949546 
O    -0.6948958   -7.1557886    1.0124609 
C     0.5775549   -7.5826467    1.5174625 
C    -0.2233181   -5.6179542   -0.8156414 
C    -0.1077273   -4.2655979   -1.1945491 
C     0.1907887   -6.6826883   -1.8691876 
C    -0.3814399   -6.2679062   -3.2541269 
C     1.7379441   -6.7219106   -1.9726525 
C    -0.3561769   -8.1068978   -1.6027679 
C     1.4356929   -1.0603121   -0.2145461 
C     2.1635397   -1.9905341    0.5440589 
C     3.4578212   -1.7049181    0.9874608 
C     2.0220838    0.1981260   -0.5252896 
C     3.3187773    0.4789213   -0.0596515 
C     4.0675196   -0.4642007    0.7075552 
O     3.8374042    1.7014782   -0.3966734 
C     4.9893662    2.1184292    0.3407607 
C     5.9965468    0.9834607    0.4588486 
N     5.3563480   -0.1401002    1.1353278 
C     6.2260714   -1.1863059    1.6536345 
C     1.3476710    1.2610308   -1.3427046 
C     1.8855666    1.5558456   -2.6075607 
C     1.3800105    2.6181856   -3.4198437 
O     2.9336968    0.7831406   -3.0364870 
C     3.7837367    1.4004951   -4.0084667 
C     2.9523986    1.9628512   -5.1576942 
N     1.9993317    2.9244153   -4.6194145 
C     1.5972818    4.0828370   -5.4016484 
C     0.2411114    2.0247718   -0.8732308 
C    -0.3125255    3.0184433   -1.7044388 
C     0.2526112    3.3237748   -2.9433360 
C    -1.3202049    3.0781235    1.4471793 
C    -2.0576137    2.8358925    2.6133335 
C    -2.4248952    3.8624044    3.5009083 
C    -2.9816715    3.4269708    4.8862995 
C    -2.9785823    4.5320415    5.9712963 
C    -4.4124486    2.8528458    4.7355961 
C    -2.0535413    2.3007334    5.4307158 
C    -2.1605264    5.1952701    3.0741120 
O    -2.6431331    6.2671359    3.7993507 
C    -4.0458791    6.5230338    3.6746783 
C    -1.3387548    5.4768330    1.9427244 
C    -0.9200636    4.3904099    1.1558378 
C    -0.8469807    6.9074218    1.6104366 
C     0.1382431    6.8987237    0.4177215 
C    -2.0293318    7.8318294    1.2228571 
C    -0.0955563    7.4996553    2.8324515 
C     0.6267221    1.1924269    1.9612584 
C     0.5098325    0.0584483    2.7647891 
C     1.3285948   -0.1360777    3.9003546 
C     1.0116086   -1.3643498    4.7970004 
C    -0.5036700   -1.3168504    5.1438290 
C     1.7430050   -1.4209378    6.1602366 
C     1.3185879   -2.6656033    4.0156363 
C     2.3164841    0.8490837    4.1488504 
O     3.2557980    0.6527735    5.1460148 
C     4.3681426   -0.1393276    4.7126324 
C     2.3726602    2.0827654    3.4277698 
C     1.5342790    2.2078713    2.3145087 
C     3.1474879    3.3144979    3.9647700 
C     4.6645539    3.0825980    4.1834864 
C     2.4985252    3.6898974    5.3263672 
C     2.9898711    4.5263077    3.0165695 
H     3.2430078   -4.6126317   -5.7956925 
H     1.9946125   -4.6584965   -4.5197378 
H     1.5382585   -4.2700777   -6.1944193 
H     4.1424845   -2.3874705   -6.6247098 
H     2.5234423   -1.9849791   -7.2521089 
H     3.3508314   -0.8558241   -6.1632682 
H     3.8282118   -1.5661291   -3.6354815 
H     4.6496764   -2.9238980   -4.4751348 
H     3.4818799   -3.2554079   -3.1837455 
H     1.8198063   -2.4212973   -2.5467670 
H     0.8390826   -3.1405767   -7.6911563 
H    -0.4982899   -2.1819442   -8.4013872 
H    -0.7599283   -3.0779173   -6.8589391 
H    -1.4710008    2.0454127   -7.0467619 
H    -0.1913142    0.8032287   -7.2188368 
H    -0.1606963    1.9308663   -5.8325616 
H    -3.2919469    0.6438464   -4.1551928 
H    -1.9738520    1.8542476   -4.0424894 
H    -3.1689699    1.9335326   -5.3682522 
H    -3.1985050   -1.1819131   -5.9746233 
H    -3.3236157    0.2154665   -7.0802282 
H    -2.0540239   -1.0021355   -7.3361143 
H    -1.7155094   -0.0527824   -2.9155776 
H    -1.5156644   -2.6975066    1.4696298 
H    -2.8392534   -7.1009256    1.8146322 
H    -3.8350964   -6.3902949    3.1209116 
H    -3.9259180   -5.7201295    1.4708050 
H    -0.9216403   -6.8120662    3.4643923 
H    -1.8198510   -5.8325971    4.6432907 
H    -0.3363436   -5.1745736    3.8983071 
H    -3.4129301   -3.3976003    2.4121415 
H    -3.3874660   -4.1643853    4.0178063 
H    -2.0122845   -3.1620966    3.5020422 
H     1.3181791   -7.7006842    0.7055178 
H     0.9719102   -6.8635469    2.2588218 
H     0.4081185   -8.5572807    1.9994058 
H     0.2933831   -4.0293452   -2.1808993 
H    -0.0107533   -5.2910847   -3.6029802 
H    -1.4811182   -6.2153912   -3.2206643 
H    -0.0888965   -7.0184401   -4.0088667 
H     2.0521044   -7.4397339   -2.7514536 
H     2.1423927   -5.7287865   -2.2375672 
H     2.2020332   -7.0281188   -1.0193887 
H    -1.4388554   -8.0878950   -1.3960696 
H     0.1411438   -8.6166172   -0.7664084 
H    -0.1885720   -8.7200254   -2.5059338 
H     1.7249354   -2.9639385    0.7795056 
H     4.0022284   -2.4654564    1.5512696 
H     5.4088043    2.9739182   -0.2107081 
H     4.6759930    2.4517926    1.3458283 
H     6.8597931    1.3180260    1.0598200 
H     6.3700668    0.7028903   -0.5502681 
H     6.4656378   -1.9590739    0.8927039 
H     5.7598922   -1.6853056    2.5195445 
H     7.1656963   -0.7252081    1.9957767 
H     4.3702095    2.2042571   -3.5233670 
H     4.4664742    0.6105761   -4.3567801 
H     2.4383983    1.1354770   -5.6885586 
H     3.6130156    2.4729856   -5.8790206 
H     0.6012282    3.9612251   -5.8725491 
H     2.3361737    4.2410781   -6.2022282 
H     1.5737124    4.9876362   -4.7669727 
H    -1.2039226    3.5632839   -1.3852675 
H    -0.1960837    4.1120156   -3.5525600 
H    -2.2924172    1.7969049    2.8709651 
H    -2.0043379    5.0437609    6.0244405 
H    -3.7581058    5.2918375    5.8215778 
H    -3.1731819    4.0568909    6.9490502 
H    -4.7927385    2.5082689    5.7136973 
H    -5.1153622    3.6104550    4.3468728 
H    -4.4261104    1.9902540    4.0453266 
H    -1.0094912    2.6518366    5.5038437 
H    -2.0605359    1.4005570    4.7959346 
H    -2.3904634    1.9976491    6.4375672 
H    -4.6465224    5.6164749    3.8695058 
H    -4.2875244    6.9010545    2.6642872 
H    -4.2897638    7.2936190    4.4213893 
H    -0.2570362    4.5681811    0.3096674 
H     0.4908642    7.9284975    0.2360447 
H     1.0265853    6.2739986    0.6185962 
H    -0.3365853    6.5399889   -0.5129652 
H    -2.6722956    8.0490651    2.0871459 
H    -2.6427766    7.3733204    0.4274714 
H    -1.6416228    8.7952786    0.8462682 
H     0.7787585    6.8766395    3.0900470 
H     0.2681087    8.5149710    2.5919213 
H    -0.7528067    7.5625961    3.7124729 
H    -0.2467980   -0.6901561    2.5048025 
H    -0.7860089   -2.2204233    5.7124509 
H    -0.7278686   -0.4341851    5.7659439 
H    -1.1449489   -1.2703872    4.2487209 
H     2.8147043   -1.6481351    6.0649664 
H     1.2906083   -2.2335871    6.7569116 
H     1.6385114   -0.4799625    6.7218182 
H     2.3819956   -2.7083268    3.7239378 
H     0.7159331   -2.7451592    3.0948304 
H     1.0991975   -3.5454248    4.6462347 
H     5.0765392   -0.1760289    5.5543644 
H     4.8523640    0.3102715    3.8265483 
H     4.0498119   -1.1676713    4.4539102 
H     1.5490210    3.1224365    1.7189351 
H     4.8538645    2.4094294    5.0306392 
H     5.1471566    2.6613673    3.2845019 
H     5.1535140    4.0479680    4.4043716 
H     1.4248791    3.9129688    5.1949391 
H     2.9893191    4.5861982    5.7470079 
H     2.6031123    2.8643205    6.0491644 
H     3.5166946    5.3953402    3.4463244 
H     3.4198740    4.3334413    2.0171636 
H     1.9322729    4.8114474    2.8854141 
