227
Energy =
C     3.7707019   -0.2734438   -0.8488652 
C     3.8794589    0.7661687    0.1043372 
C     3.5167874    0.5415365    1.4697140 
H     4.0820042    1.7889510   -0.2370860 
Pd    1.7729910    0.1457868    0.1555641 
P     0.1430311   -0.2166602    1.7780004 
P     0.3074778    0.1223117   -1.6443098 
H     3.7430530   -1.3017235   -0.4539791 
H     3.6902390   -0.4613818    1.8808235 
C     4.6281073   -0.1527613   -5.0568423 
C     4.2711531   -1.3559781   -4.4282249 
C     3.9819667   -1.3699637   -3.0605894 
C     4.0525948   -0.1874701   -2.2875605 
C     4.4004341    1.0174894   -2.9394232 
C     4.6785222    1.0345971   -4.3091236 
H     4.8642749   -0.1378482   -6.1257005 
H     4.2203719   -2.2856837   -5.0047647 
H     3.7024196   -2.3097511   -2.5726218 
H     4.4606662    1.9493498   -2.3717835 
H     4.9399905    1.9793253   -4.7960606 
C     3.2479059    3.6807860    4.4084653 
C     3.5307654    2.3625467    4.7939534 
C     3.6037279    1.3413660    3.8372230 
C     3.4148156    1.6248501    2.4662421 
C     3.1198983    2.9579346    2.0930507 
C     3.0388775    3.9728983    3.0501608 
H     3.1911780    4.4755780    5.1595160 
H     3.7003943    2.1279334    5.8491427 
H     3.8140794    0.3124043    4.1497761 
H     2.9329669    3.1962594    1.0413336 
H     2.8100938    4.9972374    2.7373874 
C    -3.0979656   -1.4042010   -5.3883252 
C    -2.3362606   -2.7496874   -5.3118110 
C    -1.5868549   -2.9312248   -6.6575546 
C    -3.4064817   -3.8618464   -5.1707397 
C    -1.3125794   -2.7440602   -4.1429033 
C    -1.0679938   -1.5487384   -3.4479669 
C    -0.5534452   -3.8938871   -3.7590049 
O    -0.8253088   -5.0631951   -4.4430512 
C     0.1292801   -5.5931389   -5.3708241 
C     0.3635727   -3.8717866   -2.6625851 
C     1.0693132   -5.1140722   -2.0528743 
C     1.4774631   -4.8361725   -0.5791309 
C     2.3770363   -5.4405740   -2.8204809 
C     0.1251863   -6.3419445   -2.0082051 
C     0.6127704   -2.6188505   -2.0733654 
C    -0.0732840   -1.4651477   -2.4616141 
C     0.9588225    1.2513328   -2.9381795 
C     0.9092531    0.9548182   -4.3030974 
C     1.3240217    1.8734580   -5.2879770 
C     1.2514487    1.4248022   -6.7724551 
C     2.3826816    2.0290639   -7.6423483 
C     1.4112162   -0.1160650   -6.8744317 
C    -0.1441037    1.7728169   -7.3558027 
C     1.7612575    3.1508428   -4.8349210 
O     2.0961074    4.1508583   -5.7266931 
C     1.0433716    4.8891826   -6.3590939 
C     1.9602255    3.4344791   -3.4482564 
C     1.5336603    2.4673456   -2.5244981 
C     2.6342083    4.7406625   -2.9551802 
C     1.6975162    5.9547076   -3.1811687 
C     2.9354364    4.6776805   -1.4404312 
C     3.9928543    4.9678531   -3.6698161 
C    -1.3268938    0.8273101   -1.2188931 
C    -1.7176596    2.0930169   -1.6925482 
C    -2.9611217    2.6392507   -1.3676468 
C    -2.2147362    0.0941530   -0.3818431 
C    -3.4682011    0.6502389   -0.0730172 
C    -3.8805858    1.9276459   -0.5648361 
O    -4.3039725   -0.0902793    0.7282659 
C    -5.6957510    0.2000062    0.5640737 
C    -5.9411458    1.6955272    0.7213557 
N    -5.1451768    2.4082327   -0.2676901 
C    -5.5664677    3.7331150   -0.6950524 
C    -1.9311825   -1.2778588    0.1629223 
C    -2.7122879   -2.3385330   -0.3272515 
C    -2.6418782   -3.6559324    0.2262102 
O    -3.5634422   -2.0531961   -1.3647689 
C    -4.6262176   -2.9900521   -1.5648299 
C    -4.0871857   -4.4168915   -1.5650828 
N    -3.4451658   -4.6629768   -0.2817500 
C    -3.3775502   -6.0144318    0.2485693 
C    -1.0137051   -1.5309045    1.2252394 
C    -0.9602456   -2.8190793    1.7870277 
C    -1.7565555   -3.8598737    1.3052731 
C     0.9526944   -0.9116050    3.2700895 
C     0.7880573   -0.3799593    4.5570367 
C     1.3805664   -0.9833971    5.6811294 
C     1.2299138   -0.3308578    7.0791281 
C     0.2987016   -1.1697042    7.9910354 
C     2.6197511   -0.1808632    7.7524549 
C     0.6159517    1.0858675    6.9645835 
C     2.1276508   -2.1797804    5.4693550 
O     2.5402022   -2.8832077    6.5843123 
C     1.7798821   -4.0655078    6.8644604 
C     2.4770811   -2.6283855    4.1621820 
C     1.8406332   -1.9824023    3.0878624 
C     3.5003576   -3.7433538    3.8098573 
C     4.4729821   -4.1149653    4.9560891 
C     2.7423884   -5.0078771    3.3288761 
C     4.3977275   -3.2402175    2.6419026 
C    -0.9076994    1.1447132    2.3764412 
C    -0.6623840    2.4643636    1.9797792 
C    -1.4152005    3.5291443    2.5007349 
C    -1.2034162    4.9656390    1.9620448 
C    -2.5471049    5.5127802    1.4153003 
C    -0.1961215    4.9691294    0.7889362 
C    -0.6416378    5.9157953    3.0504464 
C    -2.3923112    3.2195729    3.4956635 
O    -3.0324718    4.2906784    4.0915709 
C    -2.6073584    4.6398504    5.4161714 
C    -2.7486863    1.8779876    3.8249493 
C    -1.9694364    0.8605970    3.2453860 
C    -3.9171833    1.4502466    4.7557106 
C    -4.4965143    0.0905927    4.2719034 
C    -5.0981198    2.4534467    4.7611732 
C    -3.3933529    1.2317436    6.1995119 
H    -3.8546725   -1.4634723   -6.1893654 
H    -3.6196755   -1.1774879   -4.4416960 
H    -2.4308066   -0.5576551   -5.6283879 
H    -2.2950188   -2.8178292   -7.4979669 
H    -0.7961645   -2.1711187   -6.7730746 
H    -1.1262911   -3.9248337   -6.7436202 
H    -2.9521809   -4.8543805   -5.0447208 
H    -4.0423672   -3.8746777   -6.0739379 
H    -4.0632238   -3.6595875   -4.3092343 
H    -1.6494911   -0.6538357   -3.6748973 
H    -0.4285947   -5.9309663   -6.2604168 
H     0.6523408   -6.4631651   -4.9341881 
H     0.8674390   -4.8285699   -5.6688233 
H     1.8633898   -5.7681809   -0.1316251 
H     0.6200831   -4.4893223    0.0221400 
H     2.2840921   -4.0865046   -0.4964402 
H     2.2026041   -5.6908286   -3.8762300 
H     3.0647193   -4.5772804   -2.7897054 
H     2.8879542   -6.2996693   -2.3496026 
H    -0.8039942   -6.0805665   -1.4731159 
H    -0.1592977   -6.7085762   -3.0029415 
H     0.6177030   -7.1656667   -1.4621506 
H     1.3307559   -2.5317631   -1.2546688 
H     0.5374880   -0.0219253   -4.6128428 
H     3.3677731    1.8273101   -7.1882487 
H     2.3612257    1.5561523   -8.6398730 
H     2.2983857    3.1144857   -7.7802842 
H     2.3336312   -0.4587936   -6.3791510 
H     1.4555049   -0.4051359   -7.9384355 
H     0.5628583   -0.6598976   -6.4280983 
H    -0.3523985    2.8531239   -7.3370626 
H    -0.2134809    1.4308499   -8.4042863 
H    -0.9377101    1.2676971   -6.7768789 
H     0.8370091    4.4935619   -7.3702015 
H     0.1174120    4.8617946   -5.7579030 
H     1.3901681    5.9313059   -6.4546921 
H     1.6348174    2.6545353   -1.4511191 
H     0.7179809    5.7862929   -2.6989215 
H     1.5324119    6.1546639   -4.2486399 
H     2.1457209    6.8621073   -2.7378956 
H     2.0207390    4.5941343   -0.8323700 
H     3.5993054    3.8308653   -1.1929679 
H     3.4534986    5.6019825   -1.1333071 
H     3.8724450    5.0452972   -4.7591280 
H     4.6881268    4.1377820   -3.4523658 
H     4.4558861    5.8985102   -3.2960785 
H    -1.0454854    2.6656407   -2.3371579 
H    -3.2217375    3.6273659   -1.7533249 
H    -6.0283819   -0.1424683   -0.4350780 
H    -6.2199745   -0.3770034    1.3410813 
H    -5.6908883    2.0073330    1.7563789 
H    -7.0094553    1.9162434    0.5512866 
H    -5.4279039    3.8555697   -1.7844665 
H    -5.0142797    4.5427280   -0.1778085 
H    -6.6386311    3.8493232   -0.4738854 
H    -5.3815094   -2.8698259   -0.7640632 
H    -5.0793769   -2.7265721   -2.5326472 
H    -3.3804862   -4.5532816   -2.4078230 
H    -4.9204361   -5.1277981   -1.6974470 
H    -4.1652173   -6.6191910   -0.2264416 
H    -3.5556928   -6.0141753    1.3391820 
H    -2.4003675   -6.5026829    0.0558855 
H    -0.2869052   -3.0254208    2.6217830 
H    -1.6775363   -4.8453762    1.7696487 
H     0.1788269    0.5154291    4.6833519 
H    -0.6714223   -1.3589687    7.4977591 
H     0.7530444   -2.1341409    8.2604151 
H     0.1032924   -0.6207026    8.9297052 
H     2.5084406    0.3323954    8.7242749 
H     3.0924196   -1.1587085    7.9228324 
H     3.2938870    0.4248353    7.1229141 
H     1.2068468    1.7369575    6.2977976 
H     0.5983166    1.5502347    7.9656798 
H    -0.4226702    1.0643762    6.5942263 
H     0.6997833   -3.8379474    6.9259847 
H     2.1364389   -4.4386747    7.8363096 
H     1.9366112   -4.8435614    6.0949912 
H     2.0331695   -2.3311350    2.0671246 
H     5.2764997   -4.7493182    4.5419086 
H     4.9354870   -3.2175124    5.3983308 
H     3.9928809   -4.6829711    5.7644268 
H     2.0988774   -4.7791030    2.4610416 
H     2.0992394   -5.4203962    4.1251164 
H     3.4582895   -5.7937783    3.0281622 
H     4.9270713   -2.3128612    2.9232240 
H     5.1549775   -4.0065678    2.4029310 
H     3.8285563   -3.0481401    1.7163327 
H     0.1300090    2.6455230    1.2506529 
H    -2.4029152    6.5314921    1.0118367 
H    -2.9079216    4.8655914    0.5976947 
H    -3.3143862    5.5509927    2.2031366 
H     0.8092583    4.6563361    1.1163843 
H    -0.1105520    5.9928573    0.3851397 
H    -0.5192859    4.3074474   -0.0336842 
H     0.2394007    5.4702110    3.5448462 
H    -1.3937113    6.1553311    3.8143956 
H    -0.3289212    6.8683409    2.5859164 
H    -1.5227696    4.4733197    5.5437832 
H    -3.1570512    4.0608207    6.1803901 
H    -2.8362786    5.7087983    5.5511051 
H    -2.1868585   -0.1854372    3.4735730 
H    -4.7222440    0.1097914    3.1942328 
H    -3.8041676   -0.7493674    4.4498953 
H    -5.4217187   -0.1311939    4.8311184 
H    -4.8681216    3.3966417    5.2731398 
H    -5.9584617    1.9917758    5.2768702 
H    -5.4084410    2.7048572    3.7324629 
H    -4.2216321    0.9229226    6.8624016 
H    -2.6296229    0.4346491    6.2141240 
H    -2.9380951    2.1408791    6.6232891 
