227
Energy =
C     3.5822808   -0.3097036   -0.8653225 
C     3.6979504    0.8242657   -0.0269642 
C     3.3318665    0.7422325    1.3539546 
H     3.8980471    1.8045398   -0.4774789 
Pd    1.5906215    0.2096502    0.0784192 
P    -0.0138574   -0.1188352    1.7399837 
P     0.1909620    0.0326677   -1.7707231 
H     3.5444774   -1.2893309   -0.3646021 
H     3.4942726   -0.2159260    1.8655711 
C     4.3299327   -0.6591722   -5.0823820 
C     4.5928306    0.5580508   -4.4336604 
C     4.3479248    0.7030316   -3.0646713 
C     3.8484257   -0.3813428   -2.3087664 
C     3.5917449   -1.6017132   -2.9756703 
C     3.8188027   -1.7389790   -4.3477715 
H     4.5295654   -0.7668030   -6.1532763 
H     4.9978735    1.4011254   -4.9998044 
H     4.5613863    1.6601605   -2.5809460 
H     3.2015641   -2.4482742   -2.4060183 
H     3.6046279   -2.6930014   -4.8413752 
C     3.0055086    4.1412539    3.9819354 
C     3.2513998    2.8593552    4.4951449 
C     3.3520912    1.7581748    3.6347402 
C     3.2179999    1.9179781    2.2369434 
C     2.9616773    3.2166991    1.7347457 
C     2.8621297    4.3139027    2.5949183 
H     2.9292919    5.0011296    4.6554507 
H     3.3748750    2.7176302    5.5735772 
H     3.5426602    0.7598447    4.0430997 
H     2.8211741    3.3663965    0.6590505 
H     2.6671426    5.3100356    2.1838895 
C     0.6831183   -6.6108018   -2.3063358 
C     0.9826889   -5.2097763   -1.7207055 
C     2.5120307   -5.0607027   -1.5274508 
C     0.2959193   -5.1792121   -0.3278581 
C     0.4113747   -4.0071419   -2.5230364 
C     0.4844393   -2.7323592   -1.9262242 
C    -0.2430321   -4.0749286   -3.7826823 
O    -0.1108301   -5.2022775   -4.5706279 
C     1.1605891   -5.2959156   -5.2286411 
C    -1.0634255   -3.0139899   -4.2749875 
C    -1.9930382   -3.2000769   -5.5019578 
C    -1.1802382   -3.4019933   -6.8082837 
C    -2.8981507   -1.9621928   -5.7026906 
C    -2.9124270   -4.4327619   -5.2917253 
C    -1.0016398   -1.7879346   -3.5906111 
C    -0.1509948   -1.6153328   -2.4812300 
C     0.9481690    1.0753757   -3.0857082 
C     1.4444332    2.3183723   -2.6624373 
C     1.8998485    3.3019101   -3.5597641 
C     2.2457380    4.6981507   -2.9649044 
C     1.2008518    5.0442029   -1.8670668 
C     3.6419278    4.6542817   -2.2932895 
C     2.1872859    5.8688093   -3.9791039 
C     1.9413432    2.9360755   -4.9360905 
O     2.4286338    3.8227262   -5.8767342 
C     3.8517824    3.9502239   -5.9624157 
C     1.4091552    1.6996714   -5.4097233 
C     0.9312370    0.7825844   -4.4554327 
C     1.2093344    1.4119893   -6.9197814 
C     2.5095153    1.5226684   -7.7559743 
C     0.6515281   -0.0112245   -7.1439211 
C     0.1679289    2.4291221   -7.4605281 
C    -1.4013215    0.8696313   -1.4340564 
C    -1.7168865    2.1038063   -2.0327203 
C    -2.8442801    2.8317990   -1.6464002 
C    -2.2706010    0.3430568   -0.4371308 
C    -3.3947355    1.0886298   -0.0465047 
C    -3.7033173    2.3576701   -0.6310904 
O    -4.1994093    0.5433715    0.9210018 
C    -5.5298080    1.0691598    0.9787737 
C    -5.4940802    2.5937330    0.9957183 
N    -4.8216157    3.0551799   -0.2120010 
C    -5.2243189    4.2911079   -0.8643561 
C    -2.1341060   -1.0334516    0.1486855 
C    -3.0252929   -2.0083612   -0.3268396 
C    -3.0819027   -3.3207888    0.2364094 
O    -3.8744918   -1.6301683   -1.3348181 
C    -4.4390236   -2.7099340   -2.0843940 
C    -5.0251063   -3.7637696   -1.1538497 
N    -3.9631470   -4.2594743   -0.2872072 
C    -4.1495447   -5.5417067    0.3726207 
C    -1.2417775   -1.3671537    1.2038307 
C    -1.3138016   -2.6441418    1.7857278 
C    -2.2297891   -3.5949261    1.3270016 
C     0.8720618   -0.9079941    3.1409435 
C     0.8371356   -0.4023252    4.4480860 
C     1.5394253   -1.0249041    5.4955901 
C     1.5456166   -0.3868229    6.9080561 
C     3.0113717   -0.1273663    7.3475732 
C     0.8074295    0.9735740    6.9086580 
C     0.8407296   -1.2897447    7.9524400 
C     2.2741637   -2.2078745    5.1868136 
O     2.8378975   -2.8999252    6.2408029 
C     2.1536783   -4.1040947    6.6118677 
C     2.4712850   -2.6461511    3.8437891 
C     1.7184838   -1.9899718    2.8539575 
C     3.4594943   -3.7490528    3.3699297 
C     2.6726929   -5.0367219    3.0140903 
C     4.1782638   -3.2552259    2.0807751 
C     4.5881979   -4.0773318    4.3784911 
C    -1.0358019    1.1889284    2.4947437 
C    -2.0316398    0.7968370    3.3989184 
C    -2.8308652    1.7276281    4.0825238 
C    -3.9237473    1.1746776    5.0381208 
C    -5.1916923    2.0631751    5.0905864 
C    -3.3361009    0.9820368    6.4611679 
C    -4.3939954   -0.2253454    4.5510691 
C    -2.5651773    3.1045435    3.8208607 
O    -3.2349598    4.1005858    4.5070491 
C    -2.8027942    4.4000756    5.8410731 
C    -1.6616731    3.5266526    2.7970435 
C    -0.8799888    2.5406570    2.1700972 
C    -1.5483993    5.0045100    2.3479184 
C    -2.9518000    5.5614401    1.9956398 
C    -0.6868300    5.1221818    1.0701215 
C    -0.8788000    5.8721590    3.4429637 
H     0.9616265   -7.3654669   -1.5491957 
H    -0.3860584   -6.7342907   -2.5400049 
H     1.2614350   -6.8351299   -3.2140316 
H     2.9063910   -5.9086268   -0.9397642 
H     3.0434391   -5.0401409   -2.4949951 
H     2.7639256   -4.1355892   -0.9799299 
H     0.4779368   -4.2384310    0.2155534 
H     0.6702186   -6.0113535    0.2944563 
H    -0.7960280   -5.2861847   -0.4372137 
H     1.0434781   -2.5955414   -0.9931665 
H     1.1423667   -6.2297319   -5.8102777 
H     1.9927063   -5.3296039   -4.5011759 
H     1.3166166   -4.4365239   -5.9073101 
H    -1.8588282   -3.3437910   -7.6779878 
H    -0.6950491   -4.3880552   -6.8322805 
H    -0.4104362   -2.6213825   -6.9249858 
H    -3.4990453   -1.7364047   -4.8048616 
H    -2.3171399   -1.0601719   -5.9622465 
H    -3.5959454   -2.1548542   -6.5354564 
H    -2.3216701   -5.3522939   -5.1647593 
H    -3.5537071   -4.3024652   -4.4028069 
H    -3.5727623   -4.5581006   -6.1684217 
H    -1.5986378   -0.9381465   -3.9291642 
H     1.4180167    2.5412047   -1.5901539 
H     1.2354587    4.3552729   -1.0093831 
H     1.3974913    6.0571722   -1.4757699 
H     0.1745665    5.0246160   -2.2727097 
H     3.6742340    3.8812303   -1.5054214 
H     3.8756783    5.6262513   -1.8234231 
H     4.4419602    4.4275079   -3.0184274 
H     1.2610318    5.8386214   -4.5753434 
H     2.2046876    6.8182371   -3.4152606 
H     3.0391068    5.8899464   -4.6713853 
H     4.3091364    4.1075754   -4.9699464 
H     4.3017708    3.0539445   -6.4254375 
H     4.0497151    4.8243990   -6.6008983 
H     0.5317873   -0.1771765   -4.7824616 
H     3.3291391    0.9437741   -7.2985447 
H     2.8292334    2.5662431   -7.8765411 
H     2.3299012    1.1134131   -8.7658056 
H     1.3405071   -0.7854614   -6.7611853 
H    -0.3305920   -0.1522383   -6.6626674 
H     0.5136804   -0.1837735   -8.2248902 
H     0.5332715    3.4618670   -7.3430160 
H    -0.7901481    2.3290984   -6.9201142 
H    -0.0202067    2.2444088   -8.5337799 
H    -1.0721273    2.5156842   -2.8124844 
H    -3.0490270    3.7883677   -2.1328517 
H    -6.1074107    0.7047246    0.1074307 
H    -5.9723011    0.6677052    1.9029379 
H    -4.9736056    2.9439917    1.9106378 
H    -6.5226734    2.9911158    1.0124583 
H    -5.3478914    4.1369884   -1.9526823 
H    -4.4950020    5.1110366   -0.7100177 
H    -6.1910466    4.6112651   -0.4474690 
H    -5.2121953   -2.2629083   -2.7275401 
H    -3.6524133   -3.1603504   -2.7171153 
H    -5.4215393   -4.6028515   -1.7517732 
H    -5.8682087   -3.3294187   -0.5739680 
H    -4.7990837   -6.1703652   -0.2562376 
H    -4.6164085   -5.4459925    1.3756697 
H    -3.1823023   -6.0616152    0.4874814 
H    -0.6584615   -2.9045345    2.6209076 
H    -2.2709907   -4.5681039    1.8209470 
H     0.2485202    0.4928624    4.6491296 
H     3.5816152   -1.0664433    7.4078478 
H     3.5194842    0.5449082    6.6342488 
H     3.0246602    0.3565571    8.3406432 
H     0.8925950    1.4262157    7.9115495 
H     1.2399834    1.6813863    6.1813678 
H    -0.2675837    0.8645080    6.6849430 
H    -0.1672721   -1.5816162    7.6074165 
H     0.7280106   -0.7374799    8.9024992 
H     1.4212955   -2.1980560    8.1660733 
H     2.6305389   -4.4568844    7.5387008 
H     2.2489019   -4.8835862    5.8342365 
H     1.0808071   -3.9110533    6.7950251 
H     1.7989063   -2.3235123    1.8136908 
H     3.3593381   -5.8117536    2.6281679 
H     2.1527509   -5.4514259    3.8942542 
H     1.9135086   -4.8336750    2.2393296 
H     4.7132385   -2.3066217    2.2627104 
H     3.4844419   -3.1066293    1.2365044 
H     4.9180757   -4.0087159    1.7604548 
H     4.2377754   -4.6403022    5.2538789 
H     5.3437209   -4.7006280    3.8683243 
H     5.0838465   -3.1610456    4.7388891 
H    -2.1841772   -0.2711606    3.5671220 
H    -5.9642894    1.5539182    5.6930002 
H    -5.0144088    3.0532123    5.5293437 
H    -5.6003593    2.2202969    4.0774315 
H    -2.4987368    0.2630374    6.4337628 
H    -4.1089528    0.5802336    7.1409249 
H    -2.9578534    1.9211709    6.8929340 
H    -3.6235444   -1.0022441    4.6911898 
H    -4.6656298   -0.2128760    3.4827563 
H    -5.2748589   -0.5366402    5.1384782 
H    -3.4135416    3.8580787    6.5861220 
H    -2.9448408    5.4827287    5.9911702 
H    -1.7378920    4.1437920    5.9827176 
H    -0.1418697    2.8124576    1.4127714 
H    -3.4103883    4.9413997    1.2073507 
H    -3.6192716    5.5662305    2.8690965 
H    -2.8600161    6.5938895    1.6129035 
H     0.3583984    4.8205867    1.2482809 
H    -0.6740858    6.1739887    0.7355805 
H    -1.0930668    4.5095883    0.2464281 
H    -0.7001572    6.8914842    3.0552393 
H    -1.5102544    5.9652630    4.3374250 
H     0.0934145    5.4412983    3.7401177 
