227
Energy =
C    -4.0160419    0.8423375    0.0485834 
C    -4.0435469   -0.1322883   -0.9970448 
C    -3.7288605   -1.4868662   -0.7431873 
H    -4.1589931    0.2050774   -2.0350902 
Pd   -2.0079978   -0.1000933   -0.1714453 
P    -0.1893585   -1.4019860   -0.8634399 
P    -0.5957587    1.5350537    0.6504449 
H    -4.2733582    0.5061310    1.0638063 
H    -3.8311926   -1.8299393    0.2975526 
C    -4.4409264    5.0770909   -0.6320331 
C    -4.8091424    4.5096171    0.5965323 
C    -4.6777681    3.1323806    0.8070618 
C    -4.1740259    2.2877024   -0.2060994 
C    -3.8086340    2.8734394   -1.4409360 
C    -3.9438141    4.2496694   -1.6520539 
H    -4.5397431    6.1552904   -0.7944043 
H    -5.2019457    5.1430230    1.3969007 
H    -4.9648919    2.7003598    1.7708256 
H    -3.3809794    2.2511397   -2.2332985 
H    -3.6484667    4.6804831   -2.6150925 
C    -3.5509672   -4.7589727   -3.5308293 
C    -3.5928058   -4.9874405   -2.1474042 
C    -3.6467976   -3.9066008   -1.2627671 
C    -3.6654366   -2.5739806   -1.7333591 
C    -3.6266612   -2.3607111   -3.1302785 
C    -3.5668946   -3.4409546   -4.0156888 
H    -3.5075610   -5.6011170   -4.2292989 
H    -3.5811526   -6.0085019   -1.7520845 
H    -3.6738185   -4.0901686   -0.1854395 
H    -3.6388733   -1.3442325   -3.5320999 
H    -3.5347175   -3.2545108   -5.0942843 
C     3.0530446   -2.2806435   -6.5663726 
C     2.5551285   -2.8135778   -5.1991174 
C     3.7252082   -2.6127533   -4.1922483 
C     2.2917103   -4.3389789   -5.2950144 
C     1.2873177   -2.0863548   -4.6689504 
C     1.1022262   -2.0357423   -3.2753629 
C     0.3018057   -1.4316360   -5.4646385 
O     0.3250565   -1.5253705   -6.8436366 
C    -0.2052029   -2.7361783   -7.4003358 
C    -0.6978798   -0.5870278   -4.8920214 
C    -1.5619032    0.3718921   -5.7502253 
C    -0.6322955    1.2674419   -6.6118153 
C    -2.3992478    1.3131224   -4.8523769 
C    -2.5492403   -0.3929139   -6.6666112 
C    -0.8354703   -0.6079015   -3.4945199 
C     0.0137148   -1.3769432   -2.6877358 
C    -0.4257640   -3.1416294   -0.3257186 
C    -1.1360718   -3.3598257    0.8699240 
C    -1.3126517   -4.6450765    1.4050497 
C    -2.2387048   -4.8737994    2.6279766 
C    -2.9332902   -3.5579597    3.0487252 
C    -3.3496239   -5.8871843    2.2396110 
C    -1.4767831   -5.4104130    3.8662215 
C    -0.6842429   -5.7266482    0.7152370 
O    -0.6869893   -6.9619848    1.3332311 
C     0.5571205   -7.3062827    1.9592014 
C    -0.1114144   -5.5674505   -0.5757080 
C     0.0278863   -4.2473347   -1.0507441 
C     0.3692467   -6.7047958   -1.5196858 
C    -0.2044816   -6.4430991   -2.9413578 
C     1.9183130   -6.6784984   -1.5952146 
C    -0.1056922   -8.1281757   -1.1380344 
C     1.5043455   -0.9615160   -0.3238073 
C     2.2890379   -1.8804219    0.3929426 
C     3.6081057   -1.5926110    0.7556691 
C     2.0657559    0.3001513   -0.6806069 
C     3.3882247    0.5742572   -0.3095854 
C     4.1987676   -0.3570733    0.4052787 
O     3.9107584    1.8050418   -0.6313972 
C     5.3041576    1.7306557   -0.9601353 
C     6.0955401    1.2153340    0.2362509 
N     5.4972365   -0.0212903    0.7367737 
C     6.2954079   -0.8925802    1.5867588 
C     1.3327322    1.3772987   -1.4240988 
C     1.7979246    1.7341388   -2.7043525 
C     1.2165949    2.8070115   -3.4495389 
O     2.8603156    1.0257161   -3.2045502 
C     3.0532378    1.1291047   -4.6208090 
C     3.0249728    2.5856873   -5.0596143 
N     1.7351410    3.1527697   -4.6915847 
C     1.2854977    4.3619360   -5.3647358 
C     0.2366855    2.1000033   -0.8674507 
C    -0.3756181    3.1173845   -1.6235848 
C     0.1157718    3.4811819   -2.8778519 
C    -1.3411808    2.9554206    1.5431993 
C    -2.0986507    2.5806771    2.6660890 
C    -2.5487189    3.5176794    3.6026833 
C    -3.2152634    3.0400891    4.9161632 
C    -4.6453815    3.6041024    5.1084599 
C    -3.3220886    1.4973313    4.9602711 
C    -2.3147777    3.4839652    6.1009224 
C    -2.2619941    4.8929124    3.3388974 
O    -2.7973232    5.8319277    4.2009553 
C    -3.9214448    6.5612760    3.6960242 
C    -1.4004627    5.2951609    2.2817790 
C    -0.9772135    4.2930917    1.3821494 
C    -0.8230187    6.7205749    2.0505999 
C     0.7034364    6.5948532    1.7710007 
C    -1.5045064    7.3510959    0.8089570 
C    -0.9401779    7.6883214    3.2545417 
C     0.6647816    1.1281965    1.9198443 
C     0.4974735    0.0451395    2.7844927 
C     1.2628167   -0.0820425    3.9651287 
C     1.1104358   -1.3956472    4.7789232 
C     1.2880602   -2.5770572    3.7846474 
C    -0.3033911   -1.4662303    5.4079458 
C     2.1700584   -1.6222780    5.8848711 
C     2.1347404    0.9938493    4.2767262 
O     2.7225067    1.0754174    5.5264700 
C     1.8360569    1.5555753    6.5474069 
C     2.4533284    2.0152588    3.3309304 
C     1.6855490    2.0635594    2.1612303 
C     3.6245132    3.0033002    3.5467934 
C     3.3609725    3.9738641    4.7260066 
C     3.8586942    3.8653682    2.2840924 
C     4.9164811    2.1870764    3.8159320 
H     4.0469153   -2.7135590   -6.7763604 
H     2.3914078   -2.5450524   -7.4016245 
H     3.1537268   -1.1826310   -6.5571581 
H     4.6576303   -3.0004555   -4.6370446 
H     3.8696574   -1.5489916   -3.9404768 
H     3.5688690   -3.1604523   -3.2476231 
H     2.0379663   -4.7529139   -4.3046703 
H     3.1949584   -4.8593887   -5.6610409 
H     1.4607524   -4.5761737   -5.9788521 
H     1.8440676   -2.4991151   -2.6217798 
H    -0.4578002   -2.5145275   -8.4488231 
H    -1.1124145   -3.0584442   -6.8576829 
H     0.5394900   -3.5523121   -7.3764256 
H    -1.2380126    1.9891262   -7.1894217 
H    -0.0424373    0.6633096   -7.3172686 
H     0.0607126    1.8327262   -5.9656077 
H    -3.1568003    0.7625690   -4.2662738 
H    -1.7648380    1.8859956   -4.1542940 
H    -2.9435403    2.0321964   -5.4883832 
H    -3.1753625   -1.0890543   -6.0821537 
H    -3.2215205    0.3250913   -7.1694966 
H    -2.0266022   -0.9598378   -7.4491175 
H    -1.5999356   -0.0012630   -3.0017313 
H    -1.5736637   -2.4932389    1.3741933 
H    -3.5309955   -3.1249619    2.2267485 
H    -3.6223054   -3.7624874    3.8855119 
H    -2.2116131   -2.7974095    3.3921372 
H    -3.9603913   -5.5054814    1.4025581 
H    -4.0225873   -6.0497778    3.1003427 
H    -2.9173511   -6.8557814    1.9463404 
H    -0.6082041   -4.7751999    4.1050133 
H    -2.1504405   -5.4086578    4.7416737 
H    -1.1351250   -6.4437290    3.7146738 
H     0.3976238   -8.2765758    2.4529478 
H     1.3714386   -7.4005185    1.2176248 
H     0.8460090   -6.5479847    2.7102784 
H     0.4960042   -4.0865647   -2.0230730 
H     0.0741274   -5.4590641   -3.3498910 
H    -1.3045753   -6.4988882   -2.9307744 
H     0.1762638   -7.2114761   -3.6367865 
H     2.2814543   -7.4552043   -2.2918279 
H     2.2859893   -5.7000325   -1.9520074 
H     2.3730290   -6.8666258   -0.6069244 
H    -1.1911493   -8.1552203   -0.9504594 
H     0.4047798   -8.5352235   -0.2542043 
H     0.1155906   -8.8050259   -1.9823382 
H     1.8668073   -2.8508486    0.6681433 
H     4.1815841   -2.3399376    1.3090184 
H     5.4284755    1.0704938   -1.8401147 
H     5.6167146    2.7518260   -1.2254463 
H     6.1243137    1.9889569    1.0287783 
H     7.1385334    1.0180077   -0.0764288 
H     6.5269341   -1.8562234    1.0905626 
H     5.7754300   -1.1045631    2.5395954 
H     7.2439817   -0.3871017    1.8218871 
H     4.0307162    0.6682512   -4.8266555 
H     2.2629950    0.5545262   -5.1382605 
H     3.1425843    2.6416476   -6.1555403 
H     3.8708606    3.1377994   -4.5953827 
H     1.7817089    4.4227363   -6.3451775 
H     1.5223012    5.2808555   -4.7893583 
H     0.1956606    4.3284667   -5.5401411 
H    -1.2516119    3.6384155   -1.2308400 
H    -0.3623385    4.3028336   -3.4153866 
H    -2.3078277    1.5177711    2.8149430 
H    -4.6314202    4.6815650    5.3221864 
H    -5.2699246    3.4240905    4.2150694 
H    -5.1298585    3.1015795    5.9643702 
H    -3.7633459    1.1937632    5.9250228 
H    -3.9746699    1.1038986    4.1592120 
H    -2.3353245    1.0099714    4.8770305 
H    -2.2208133    4.5807015    6.1339569 
H    -1.3055975    3.0447508    6.0029695 
H    -2.7499767    3.1400314    7.0567859 
H    -3.7053869    7.0121241    2.7108945 
H    -4.1322853    7.3559521    4.4275328 
H    -4.8074794    5.9068732    3.6020549 
H    -0.3117895    4.5674402    0.5613813 
H     1.1371444    7.6018056    1.6432884 
H     1.2137561    6.1053825    2.6187613 
H     0.9319190    6.0237385    0.8562315 
H    -2.5892603    7.4789196    0.9688888 
H    -1.3727927    6.7154527   -0.0845121 
H    -1.0705763    8.3444562    0.5950670 
H    -0.5814998    7.2221793    4.1861596 
H    -0.3144206    8.5745580    3.0479666 
H    -1.9633646    8.0503707    3.4233359 
H    -0.2504081   -0.7157638    2.5347629 
H     1.2197089   -3.5342141    4.3306786 
H     0.5258008   -2.5912425    2.9896426 
H     2.2778830   -2.5252459    3.3014598 
H    -0.4522767   -0.6625323    6.1498224 
H    -0.4518022   -2.4346485    5.9185111 
H    -1.0906444   -1.3616052    4.6418892 
H     2.0373764   -0.9652206    6.7555148 
H     3.1932405   -1.4809965    5.5013264 
H     2.0753973   -2.6627843    6.2440414 
H     2.4264415    1.6037417    7.4748743 
H     0.9767651    0.8750848    6.6918256 
H     1.4518989    2.5616996    6.2966355 
H     1.8516967    2.8582671    1.4299957 
H     2.3824968    4.4739718    4.6134568 
H     3.3869610    3.4557157    5.6950506 
H     4.1423454    4.7548102    4.7446530 
H     4.0108207    3.2488083    1.3827540 
H     4.7575545    4.4885287    2.4349214 
H     3.0137873    4.5486299    2.0903532 
H     5.7832624    2.8669035    3.9046683 
H     4.8308117    1.6056588    4.7466653 
H     5.1046266    1.4864867    2.9843158 
