227
Energy =
C     3.7573431    0.0033628   -0.7574971 
C     3.7875841    1.0303113    0.2122912 
C     3.3403407    0.8133245    1.5529473 
H     3.9879688    2.0561462   -0.1242749 
Pd    1.6887150    0.3439709    0.1432606 
P     0.0263672   -0.1920213    1.6769224 
P     0.2740390    0.1515360   -1.6824137 
H     3.6827377   -1.0348011   -0.3950947 
H     3.5030912   -0.1787598    1.9943310 
C     5.0420273    0.3176025   -4.8504829 
C     4.1851580   -0.7184010   -4.4479853 
C     3.7702364   -0.8079433   -3.1166793 
C     4.1895614    0.1438863   -2.1589097 
C     5.0459610    1.1859591   -2.5795258 
C     5.4702595    1.2675006   -3.9105623 
H     5.3824174    0.3774520   -5.8894353 
H     3.8371903   -1.4593498   -5.1753910 
H     3.0924718   -1.6114949   -2.8144724 
H     5.4141042    1.9169165   -1.8533912 
H     6.1512360    2.0699927   -4.2128716 
C     2.8245021    3.9959902    4.4125522 
C     2.7456372    4.2717155    3.0373036 
C     2.9019890    3.2440485    2.1027146 
C     3.1528813    1.9136130    2.5181955 
C     3.2198015    1.6493263    3.9048381 
C     3.0620307    2.6813276    4.8392103 
H     2.7044221    4.8015593    5.1443500 
H     2.5555828    5.2938988    2.6935689 
H     2.8112115    3.4740678    1.0348638 
H     3.4053422    0.6250752    4.2462066 
H     3.1348432    2.4600026    5.9086287 
C     1.3988798   -6.3930651   -2.3777454 
C     1.6172553   -4.9598313   -1.8372105 
C     3.1178864   -4.5966163   -1.9709583 
C     1.2408954   -5.0155220   -0.3306021 
C     0.7435913   -3.8500624   -2.4825573 
C     0.7910105   -2.5714773   -1.8919213 
C    -0.1477785   -4.0052838   -3.5767761 
O    -0.0788691   -5.1347548   -4.3709897 
C     0.9889636   -5.0942237   -5.3280650 
C    -1.1545249   -3.0387827   -3.8814744 
C    -2.3412369   -3.3651448   -4.8202908 
C    -1.8989435   -3.5601052   -6.2925528 
C    -3.3883405   -2.2270967   -4.7938721 
C    -3.0243362   -4.6616190   -4.3077690 
C    -1.0711550   -1.7971043   -3.2330388 
C    -0.0478873   -1.5310626   -2.3052110 
C     0.9665154    1.1054209   -3.0846332 
C     1.5639997    2.3343872   -2.7760749 
C     1.9761545    3.2420189   -3.7683144 
C     2.3693321    4.6700666   -3.2904336 
C     2.3687316    5.7523946   -4.3986466 
C     1.3108661    5.1380416   -2.2479217 
C     3.7510455    4.6388865   -2.5915213 
C     1.9117438    2.7811573   -5.1149668 
O     2.4266876    3.5505233   -6.1391973 
C     3.8548724    3.5717809   -6.2465676 
C     1.2616074    1.5598841   -5.4703606 
C     0.7936269    0.7447551   -4.4274209 
C     0.9823721    1.1638468   -6.9415356 
C     2.2884525    0.9662779   -7.7519995 
C     0.1943405   -0.1651271   -7.0213002 
C     0.1144161    2.2666015   -7.6042124 
C    -1.3336233    0.9762556   -1.3615935 
C    -1.5997106    2.2357786   -1.9315003 
C    -2.7539980    2.9509156   -1.6111607 
C    -2.2776873    0.4177242   -0.4514756 
C    -3.4328157    1.1507277   -0.1281884 
C    -3.6968825    2.4366864   -0.6958089 
O    -4.3133268    0.5754627    0.7548792 
C    -5.6378921    1.1210457    0.7572835 
C    -5.5890068    2.6441579    0.8062420 
N    -4.8553371    3.1151513   -0.3592996 
C    -5.2195592    4.3613352   -1.0149161 
C    -2.1557556   -0.9820031    0.0719553 
C    -3.0809005   -1.9179499   -0.4096086 
C    -3.0654127   -3.2887627   -0.0195549 
O    -4.0436713   -1.4976501   -1.2997729 
C    -5.2983496   -2.1526963   -1.0625844 
C    -5.1589147   -3.6533361   -1.2833296 
N    -3.9881596   -4.1607893   -0.5674797 
C    -3.9027040   -5.5918420   -0.3210301 
C    -1.1695247   -1.4128411    1.0075964 
C    -1.1547640   -2.7608495    1.4086337 
C    -2.0768374   -3.6856546    0.9089134 
C     0.8479195   -1.0186655    3.0959581 
C     0.6898876   -0.5805217    4.4178267 
C     1.3687764   -1.1968973    5.4842868 
C     1.2114607   -0.6351391    6.9203926 
C     0.4247979    0.6980961    6.9144979 
C     0.4266587   -1.6264382    7.8168107 
C     2.6035210   -0.3443506    7.5414038 
C     2.2082256   -2.3093968    5.1816332 
O     2.7836309   -2.9653942    6.2506064 
C     2.2605821   -4.2494861    6.6141496 
C     2.5105147   -2.6818799    3.8360807 
C     1.7843765   -2.0290136    2.8241217 
C     3.5830800   -3.7211913    3.4097878 
C     4.1761312   -3.3369487    2.0246055 
C     4.7899969   -3.7792006    4.3800743 
C     2.9277662   -5.1191259    3.2620646 
C    -1.0427909    1.0898126    2.4070626 
C    -2.0972429    0.6925639    3.2394162 
C    -2.9309403    1.6225620    3.8835985 
C    -4.0817604    1.0650217    4.7674091 
C    -3.5726288    0.8292862    6.2137684 
C    -4.5453763   -0.3153271    4.2201678 
C    -5.3389442    1.9697584    4.7847998 
C    -2.6409975    3.0006029    3.6542562 
O    -3.3491382    3.9927075    4.3077007 
C    -2.9823997    4.2809081    5.6640236 
C    -1.6695919    3.4291878    2.6969802 
C    -0.8553398    2.4447762    2.1137194 
C    -1.5203919    4.9085410    2.2624342 
C    -0.9378403    5.7762824    3.4059488 
C    -2.8961443    5.4622496    1.8112680 
C    -0.5684322    5.0319132    1.0483258 
H     1.9334690   -7.0957475   -1.7136889 
H     0.3326444   -6.6682106   -2.3869182 
H     1.8000171   -6.5374001   -3.3913359 
H     3.7431309   -5.3747554   -1.4980444 
H     3.4174625   -4.5139058   -3.0303918 
H     3.3527102   -3.6364231   -1.4791261 
H     1.3756020   -4.0460838    0.1751382 
H     1.8732005   -5.7597610    0.1840807 
H     0.1839756   -5.3052425   -0.2056629 
H     1.4970718   -2.3725926   -1.0773994 
H     0.8581405   -4.2492625   -6.0299811 
H     0.9489944   -6.0450193   -5.8805009 
H     1.9729657   -4.9948220   -4.8326649 
H    -2.7917108   -3.6522949   -6.9367200 
H    -1.3025424   -4.4746578   -6.4202294 
H    -1.3119658   -2.6961290   -6.6482822 
H    -3.7333008   -2.0072978   -3.7692728 
H    -2.9909183   -1.2936620   -5.2312355 
H    -4.2618829   -2.5263786   -5.3987984 
H    -2.3526595   -5.5278605   -4.4067133 
H    -3.2951942   -4.5555985   -3.2435263 
H    -3.9428161   -4.8613497   -4.8886924 
H    -1.7998143   -1.0118993   -3.4468480 
H     1.6550095    2.6135546   -1.7199061 
H     1.4435266    5.7180741   -4.9960653 
H     2.4324860    6.7436680   -3.9159669 
H     3.2225319    5.6725587   -5.0851154 
H     0.2966366    5.1300127   -2.6841427 
H     1.5389733    6.1696199   -1.9277654 
H     1.2935562    4.5115086   -1.3415564 
H     4.5485922    4.3119390   -3.2799172 
H     4.0129675    5.6433721   -2.2138151 
H     3.7437676    3.9420802   -1.7346804 
H     4.2415341    2.5793871   -6.5381731 
H     4.0952144    4.3084057   -7.0279437 
H     4.3321551    3.8686375   -5.2961915 
H     0.2921555   -0.1955927   -4.6572609 
H     2.9740390    0.2738459   -7.2330659 
H     2.8077835    1.9187743   -7.9250246 
H     2.0493283    0.5341642   -8.7400391 
H     0.7635220   -1.0112605   -6.5955073 
H    -0.7768474   -0.1047401   -6.4996151 
H    -0.0122172   -0.4000572   -8.0794677 
H     0.6369221    3.2354068   -7.6025478 
H    -0.8430080    2.3802990   -7.0654085 
H    -0.1109350    1.9908395   -8.6503179 
H    -0.8968320    2.6746242   -2.6427563 
H    -2.9175095    3.9275661   -2.0723882 
H    -6.1765254    0.7875855   -0.1506500 
H    -6.1315610    0.7029049    1.6479250 
H    -5.1108808    2.9756432    1.7506653 
H    -6.6140202    3.0496305    0.7796304 
H    -5.2082250    4.2382913   -2.1133618 
H    -4.5441286    5.1995190   -0.7508237 
H    -6.2407925    4.6347590   -0.7083521 
H    -5.6255858   -1.9317004   -0.0281317 
H    -6.0184394   -1.7175820   -1.7720376 
H    -5.0754519   -3.8702394   -2.3655276 
H    -6.0717750   -4.1585651   -0.9107756 
H    -4.5701995   -6.1133145   -1.0245586 
H    -4.2009648   -5.8637548    0.7124443 
H    -2.8744065   -5.9543520   -0.4975667 
H    -0.4231072   -3.1017500    2.1459604 
H    -2.0344709   -4.7194718    1.2598835 
H     0.0298409    0.2635106    4.6169365 
H     0.9026678    1.4574184    6.2722152 
H    -0.6168506    0.5685397    6.5767301 
H     0.3897698    1.0972249    7.9427881 
H     0.2312861   -1.1647463    8.8013235 
H    -0.5461101   -1.8824053    7.3602696 
H     0.9865723   -2.5553933    7.9925717 
H     3.2028483   -1.2604945    7.6386348 
H     2.4770150    0.1049618    8.5426114 
H     3.1655335    0.3709966    6.9160436 
H     2.8413202   -5.0629718    6.1421085 
H     1.1975869   -4.3437857    6.3295705 
H     2.3585632   -4.3377276    7.7082430 
H     1.9670151   -2.2972572    1.7793285 
H     4.9993762   -4.0291622    1.7791334 
H     3.4425222   -3.4130818    1.2051390 
H     4.5868712   -2.3117267    2.0340943 
H     4.5391018   -4.1930583    5.3648171 
H     5.2122080   -2.7718622    4.5388858 
H     5.5765379   -4.4139791    3.9356140 
H     2.1018020   -5.0819893    2.5315442 
H     3.6712849   -5.8548466    2.9058258 
H     2.5164451   -5.4872046    4.2144785 
H    -2.2686919   -0.3764744    3.3818038 
H    -4.3879646    0.4305906    6.8439292 
H    -2.7507739    0.0924551    6.2143929 
H    -3.1972228    1.7511808    6.6842591 
H    -4.7507932   -0.2721789    3.1382853 
H    -5.4636765   -0.6254593    4.7479068 
H    -3.7966005   -1.1079573    4.3874643 
H    -5.6935510    2.1691653    3.7595072 
H    -5.1730645    2.9404674    5.2687352 
H    -6.1473761    1.4503725    5.3286910 
H    -3.1807910    5.3521551    5.8292816 
H    -1.9127291    4.0705443    5.8408660 
H    -3.5937114    3.6949125    6.3745687 
H    -0.0675713    2.7188656    1.4087893 
H    -1.6463338    5.8867797    4.2387633 
H    -0.0028836    5.3353888    3.7930105 
H    -0.7110286    6.7895263    3.0276989 
H    -3.2931453    4.8433727    0.9898236 
H    -2.7820879    6.4972326    1.4416212 
H    -3.6242025    5.4595914    2.6352667 
H    -0.5345223    6.0856244    0.7211070 
H     0.4627219    4.7301360    1.2963618 
H    -0.9163667    4.4236752    0.1952525 
