227
Energy =
C    -4.0633324    0.6909151    0.1410179 
C    -4.0157455   -0.2489895   -0.9346116 
C    -3.6405924   -1.5974084   -0.7339968 
H    -4.1214738    0.1257110   -1.9609336 
Pd   -2.0051310   -0.1340994   -0.0588281 
P    -0.1500505   -1.3866787   -0.7252751 
P    -0.6503403    1.5626116    0.7639533 
H    -4.3293583    0.3126717    1.1392182 
H    -3.7455772   -2.0027246    0.2836697 
C    -4.7487275    4.9001501   -0.4754754 
C    -4.0946862    4.1439451   -1.4621158 
C    -3.8742329    2.7764978   -1.2702154 
C    -4.3022344    2.1300731   -0.0869263 
C    -4.9561105    2.9033496    0.8949967 
C    -5.1807671    4.2711307    0.7007226 
H    -4.9187132    5.9714633   -0.6238508 
H    -3.7462153    4.6249810   -2.3826470 
H    -3.3301484    2.2088457   -2.0319766 
H    -5.2916490    2.4222220    1.8194760 
H    -5.6967157    4.8480867    1.4735653 
C    -3.1177779   -4.6530709   -3.7277275 
C    -3.2803164   -3.3159298   -4.1230240 
C    -3.4653564   -2.3118907   -3.1683096 
C    -3.4869668   -2.6172675   -1.7876875 
C    -3.3454767   -3.9719228   -1.4086573 
C    -3.1611025   -4.9759934   -2.3643489 
H    -2.9672966   -5.4369342   -4.4774092 
H    -3.2612381   -3.0535250   -5.1854726 
H    -3.5857016   -1.2789062   -3.5042993 
H    -3.3659546   -4.2339244   -0.3472621 
H    -3.0467968   -6.0144338   -2.0422593 
C     3.0785533   -2.2444151   -6.4405913 
C     2.5561440   -2.7972254   -5.0906928 
C     3.7306183   -2.6617616   -4.0784197 
C     2.2346444   -4.3088575   -5.2263526 
C     1.3103546   -2.0449190   -4.5462148 
C     1.1331004   -2.0071961   -3.1512415 
C     0.3325806   -1.3666822   -5.3310259 
O     0.3553549   -1.4358576   -6.7115899 
C    -0.1850172   -2.6263963   -7.3009959 
C    -0.6553908   -0.5179074   -4.7445883 
C    -1.5103284    0.4620037   -5.5900277 
C    -2.3461236    1.3922714   -4.6803052 
C    -2.5010675   -0.2710209   -6.5280701 
C    -0.5695182    1.3634439   -6.4330313 
C    -0.7873978   -0.5548265   -3.3465168 
C     0.0550052   -1.3444712   -2.5505851 
C    -0.3730154   -3.1297011   -0.1851195 
C     0.1558279   -4.2286611   -0.8676584 
C    -0.0151236   -5.5516631   -0.4142436 
C     0.8134636   -6.6477848   -1.1419411 
C     0.2156506   -6.9189042   -2.5461726 
C     2.2653629   -6.1109364   -1.3185893 
C     0.9600530   -7.9787725   -0.3632560 
C    -0.8879470   -5.7426229    0.6926659 
O    -1.2542801   -7.0136246    1.0872764 
C    -2.2084614   -7.6746791    0.2470838 
C    -1.3837389   -4.6473481    1.4648893 
C    -1.0890690   -3.3528194    1.0058450 
C    -2.1932066   -4.8538102    2.7703053 
C    -2.5718697   -3.4994301    3.4100300 
C    -3.5211469   -5.6169548    2.5244406 
C    -1.3270748   -5.6423715    3.7876341 
C     1.5372843   -0.9253031   -0.1766146 
C     2.3271656   -1.8407946    0.5380368 
C     3.6648781   -1.5578468    0.8343442 
C     2.0760231    0.3409953   -0.5385195 
C     3.4131438    0.6259936   -0.1971992 
C     4.2441070   -0.3327417    0.4522582 
O     3.8668318    1.8738746   -0.5138320 
C     5.2635666    2.1687423   -0.3789999 
C     6.1155031    0.9088068   -0.3610424 
N     5.5921861   -0.0091730    0.6524084 
C     6.5048076   -1.0511343    1.1056601 
C     1.3215440    1.4039128   -1.2838797 
C     1.7996329    1.7593829   -2.5616083 
C     1.2377241    2.8393626   -3.3103332 
O     2.8610394    1.0441547   -3.0498699 
C     3.0946102    1.1683615   -4.4570158 
C     3.0898567    2.6327863   -4.8709045 
N     1.7925446    3.2008872   -4.5321519 
C     1.3653074    4.4209632   -5.2001551 
C     0.2005970    2.1123044   -0.7538038 
C    -0.4050698    3.1211679   -1.5268872 
C     0.1182854    3.5018569   -2.7633525 
C    -1.4520732    2.9870142    1.6007236 
C    -2.2657886    2.6315281    2.6899586 
C    -2.7978717    3.5890807    3.5619465 
C    -3.5361988    3.1396167    4.8471632 
C    -4.9810699    3.6905874    4.9454667 
C    -3.6310343    1.5976680    4.9283214 
C    -2.7116718    3.6292725    6.0682620 
C    -2.5365205    4.9620270    3.2625603 
O    -3.1426500    5.9155729    4.0583795 
C    -4.2549554    6.6041379    3.4760573 
C    -1.6294030    5.3523458    2.2387259 
C    -1.1182651    4.3299738    1.4108933 
C    -1.1081540    6.7922564    1.9626873 
C    -1.7702129    7.3296406    0.6673357 
C    -1.3176027    7.8074986    3.1143073 
C     0.4312148    6.7354805    1.7435714 
C     0.6399038    1.1971885    2.0162425 
C     1.6637422    2.1393303    2.2141730 
C     2.6242043    1.9704655    3.2192482 
C     3.6604194    3.0833244    3.5096846 
C     3.5202574    4.2434348    2.4976635 
C     5.1287528    2.5838926    3.4516100 
C     3.3684676    3.6461066    4.9269030 
C     2.5266692    0.7943206    4.0236907 
O     3.5492592    0.5489901    4.9227996 
C     4.4838908   -0.4390135    4.4733100 
C     1.4200988   -0.0895030    3.9497607 
C     0.5111388    0.1177931    2.8895093 
C     1.0879924   -1.2298077    4.9483113 
C     1.9132432   -1.2490473    6.2585975 
C     1.2492363   -2.5941255    4.2318897 
C    -0.3892462   -1.0418929    5.3997362 
H     4.0485799   -2.7198298   -6.6691614 
H     2.4028081   -2.4420667   -7.2826311 
H     3.2368185   -1.1541554   -6.3905775 
H     4.6498792   -3.0690262   -4.5328629 
H     3.9102202   -1.6088558   -3.8025115 
H     3.5567155   -3.2271222   -3.1474335 
H     1.9329187   -4.7306451   -4.2526134 
H     3.1258148   -4.8597372   -5.5772517 
H     1.4153174   -4.4968102   -5.9384636 
H     1.8753973   -2.4829142   -2.5076489 
H     0.5762757   -3.4249601   -7.3654717 
H    -0.5040630   -2.3579518   -8.3203306 
H    -1.0513443   -2.9969607   -6.7242676 
H    -2.8842016    2.1249377   -5.3059739 
H    -1.7126461    1.9495288   -3.9698436 
H    -3.1089264    0.8355444   -4.1072609 
H    -1.9826907   -0.8512760   -7.3031487 
H    -3.1622207   -0.9472865   -5.9601938 
H    -3.1403727    0.4700040   -7.0403280 
H     0.0130724    0.7660038   -7.1501840 
H    -1.1665357    2.1032248   -6.9966527 
H     0.1304857    1.9075152   -5.7770598 
H    -1.5437271    0.0541756   -2.8438014 
H     0.7326071   -4.0601621   -1.7777018 
H     0.1298352   -5.9871667   -3.1319199 
H     0.8571098   -7.6228685   -3.1057665 
H    -0.7930616   -7.3607618   -2.4778549 
H     2.3176229   -5.2152909   -1.9583941 
H     2.8899986   -6.8878131   -1.7925207 
H     2.7107053   -5.8575711   -0.3405747 
H     0.0409766   -8.5801653   -0.3476396 
H     1.7370031   -8.5877607   -0.8581362 
H     1.2722566   -7.8032154    0.6789688 
H    -3.1556710   -7.1071038    0.2010724 
H    -1.8235979   -7.8141347   -0.7784243 
H    -2.3921385   -8.6586436    0.7036386 
H    -1.4640200   -2.4829543    1.5526563 
H    -3.2367819   -2.9037058    2.7580058 
H    -1.6854817   -2.8927020    3.6499927 
H    -3.1108962   -3.6818602    4.3550484 
H    -4.1399536   -5.5773687    3.4383072 
H    -4.1045960   -5.1581960    1.7058924 
H    -3.3490135   -6.6759089    2.2904997 
H    -0.3978238   -5.0933052    4.0141959 
H    -1.0620869   -6.6345488    3.3914093 
H    -1.8854817   -5.7785455    4.7313036 
H     1.9095889   -2.8060732    0.8368233 
H     4.2635311   -2.3099622    1.3533081 
H     5.5275103    2.8117213   -1.2363501 
H     5.4115813    2.7418032    0.5522932 
H     7.1523666    1.1806021   -0.1033489 
H     6.1223840    0.4340160   -1.3670414 
H     6.6017621   -1.8839342    0.3761461 
H     6.1615356   -1.4684868    2.0659001 
H     7.4979126   -0.6037564    1.2677642 
H     4.0738136    0.7020156   -4.6425145 
H     2.3149691    0.6095559   -5.0071879 
H     3.2421570    2.7092257   -5.9612304 
H     3.9241605    3.1697570   -4.3690424 
H     1.8941108    4.4979740   -6.1622132 
H     1.5823059    5.3299589   -4.6017657 
H     0.2819067    4.3908036   -5.4125358 
H    -1.2985111    3.6289873   -1.1566330 
H    -0.3517000    4.3239075   -3.3073960 
H    -2.4627979    1.5697565    2.8616271 
H    -4.9903396    4.7714292    5.1407791 
H    -5.5529800    3.4879755    4.0225764 
H    -5.5074947    3.1976382    5.7819105 
H    -4.1294372    1.3163731    5.8716220 
H    -4.2281676    1.1753401    4.0989423 
H    -2.6374743    1.1181344    4.9223322 
H    -2.6328459    4.7278269    6.0725042 
H    -1.6935940    3.2016833    6.0441551 
H    -3.1991654    3.3090401    7.0069143 
H    -4.4719015    7.4604786    4.1324562 
H    -5.1432358    5.9488080    3.4280987 
H    -4.0240908    6.9640486    2.4580122 
H    -0.4156349    4.5954822    0.6188977 
H    -1.3798022    8.3343329    0.4244310 
H    -1.5682289    6.6624770   -0.1894411 
H    -2.8657975    7.4060328    0.7778209 
H    -0.9862056    7.3974647    4.0815952 
H    -2.3598329    8.1370853    3.2189757 
H    -0.7162293    8.7076467    2.8957659 
H     0.7267947    6.1245215    0.8749648 
H     0.8135348    7.7560229    1.5686200 
H     0.9344788    6.3300741    2.6380897 
H     1.7064723    3.0098114    1.5562608 
H     4.2627758    5.0249538    2.7336864 
H     3.6915381    3.9086321    1.4597802 
H     2.5227035    4.7102040    2.5436666 
H     5.3943012    2.0076697    4.3492902 
H     5.8109969    3.4513924    3.4001410 
H     5.3053218    1.9512848    2.5646737 
H     3.4733821    2.8576694    5.6895414 
H     2.3440582    4.0553167    4.9791348 
H     4.0781763    4.4591822    5.1651701 
H     3.9908148   -1.4128737    4.2964817 
H     5.2342323   -0.5462522    5.2715277 
H     4.9748958   -0.1171826    3.5379477 
H    -0.3245483   -0.5757978    2.7461140 
H     2.9515944   -1.5786287    6.1123506 
H     1.9301459   -0.2611982    6.7446582 
H     1.4399762   -1.9683847    6.9508240 
H     0.6171318   -2.6636155    3.3300054 
H     0.9725295   -3.4191596    4.9118335 
H     2.2947358   -2.7500908    3.9129833 
H    -0.6850632   -1.8676830    6.0702581 
H    -0.5021425   -0.0920245    5.9508021 
H    -1.0985455   -1.0273672    4.5575771 
