227
Energy =
C     3.7088241   -0.0076236   -0.7842346 
C     3.7273667    1.0683818    0.1317584 
C     3.2849324    0.9061538    1.4811181 
H     3.9139668    2.0798662   -0.2513864 
Pd    1.6427704    0.3503560    0.0881494 
P     0.0093904   -0.1412665    1.6744597 
P     0.2736024    0.1349650   -1.7773276 
H     3.6545507   -1.0251155   -0.3666576 
H     3.4632501   -0.0627826    1.9658247 
C     4.9926783    0.0591951   -4.8844895 
C     5.3338062    1.1200485   -4.0318917 
C     4.9039385    1.1240850   -2.7007626 
C     4.1328393    0.0560477   -2.1915508 
C     3.7979959   -1.0068344   -3.0617944 
C     4.2177378   -1.0038488   -4.3944847 
H     5.3392956    0.0553044   -5.9232215 
H     5.9540156    1.9428807   -4.4012834 
H     5.2037703    1.9447413   -2.0431695 
H     3.1878208   -1.8330978   -2.6853293 
H     3.9403686   -1.8324057   -5.0539602 
C     2.7534019    4.2192296    4.1839051 
C     2.6021184    4.4136966    2.8005918 
C     2.7617408    3.3423433    1.9171404 
C     3.0860553    2.0488365    2.3934634 
C     3.2222876    1.8653516    3.7875274 
C     3.0645424    2.9414020    4.6710551 
H     2.6318758    5.0597206    4.8750723 
H     2.3538224    5.4064838    2.4109416 
H     2.6145653    3.5064286    0.8435725 
H     3.4649360    0.8696543    4.1736807 
H     3.1950141    2.7835540    5.7464921 
C    -0.9907181   -3.4579968   -6.4286858 
C    -2.0449822   -3.1700758   -5.3238573 
C    -3.0958117   -4.3119249   -5.3476624 
C    -2.7877156   -1.8630600   -5.6880421 
C    -1.2495215   -3.0146717   -3.9977414 
C    -1.0228028   -1.7340252   -3.4647538 
C    -0.5722206   -4.1122827   -3.3802879 
O    -0.8759495   -5.3744501   -3.8507523 
C    -1.8186653   -6.1186606   -3.0651568 
C     0.4105625   -3.9368289   -2.3663467 
C     1.2802227   -5.0688222   -1.7521069 
C     2.6834272   -4.5155451   -1.3812617 
C     1.5407981   -6.2537280   -2.7170369 
C     0.6171291   -5.5735945   -0.4455003 
C     0.6016464   -2.6225429   -1.8977313 
C    -0.1009672   -1.5322398   -2.4224188 
C     1.0069646    1.1400669   -3.1270437 
C     1.5188550    2.3917760   -2.7452123 
C     1.9653721    3.3392528   -3.6790667 
C     2.3411347    4.7457948   -3.1309500 
C     2.4367176    5.8702482   -4.1915053 
C     1.2350135    5.1934798   -2.1318168 
C     3.6863204    4.6596707   -2.3675756 
C     1.9924292    2.9310462   -5.0465032 
O     2.5282732    3.7845953   -5.9870011 
C     3.9391930    3.6664020   -6.1733030 
C     1.4468914    1.6891449   -5.4784996 
C     0.9680361    0.8105221   -4.4844811 
C     1.2258176    1.2364988   -6.9507438 
C     1.7166987    2.1932334   -8.0618474 
C     1.9146435   -0.1334909   -7.1800018 
C    -0.3080173    1.0822869   -7.1503041 
C    -1.3277059    0.9639193   -1.4516096 
C    -1.6140191    2.2194287   -2.0163544 
C    -2.7756526    2.9163014   -1.6789020 
C    -2.2377655    0.4002385   -0.5124932 
C    -3.3898996    1.1248312   -0.1575642 
C    -3.6883781    2.3982806   -0.7375843 
O    -4.2427929    0.5383412    0.7382170 
C    -5.1901158    1.4210454    1.3515646 
C    -5.8741465    2.2919508    0.3091500 
N    -4.8550813    3.0668145   -0.3854054 
C    -5.2719258    4.2501543   -1.1227925 
C    -2.0965189   -0.9967006    0.0220304 
C    -2.9714494   -1.9609137   -0.5112829 
C    -2.9731890   -3.3137380   -0.0545426 
O    -3.8420854   -1.5256123   -1.4720565 
C    -4.5262689   -2.5379186   -2.2129494 
C    -5.0207542   -3.6496563   -1.2982678 
N    -3.8684247   -4.2285411   -0.6141574 
C    -4.0358264   -5.5375139   -0.0004497 
C    -1.1776486   -1.3839927    1.0355516 
C    -1.1801766   -2.7113421    1.4959833 
C    -2.0698037   -3.6543815    0.9717046 
C     0.8909804   -0.9627983    3.0629522 
C     0.8235809   -0.4926308    4.3838219 
C     1.5341325   -1.1161745    5.4250038 
C     1.4996068   -0.5220986    6.8558501 
C     0.7312303    0.8202925    6.8831029 
C     0.7967971   -1.4760380    7.8551718 
C     2.9497333   -0.2421105    7.3334446 
C     2.3174129   -2.2601253    5.0944245 
O     2.8769115   -2.9760521    6.1340607 
C     2.2249023   -4.2212095    6.4184978 
C     2.5643230   -2.6403867    3.7432201 
C     1.7928407   -1.9958342    2.7586248 
C     3.6426970   -3.6490755    3.2560026 
C     4.4192100   -2.9928528    2.0777454 
C     4.7184755   -4.0177683    4.3072115 
C     2.9580869   -4.9380310    2.7362449 
C    -1.0574032    1.1118783    2.4571216 
C    -0.9544064    2.4690176    2.1331783 
C    -1.7548797    3.4275395    2.7774570 
C    -1.7343873    4.9014250    2.3009953 
C    -1.1218955    5.8423540    3.3690024 
C    -3.1800628    5.3489109    1.9574822 
C    -0.8901031    5.0491766    1.0127175 
C    -2.6087378    2.9737588    3.8299038 
O    -3.2764121    3.9443778    4.5523552 
C    -2.7556256    4.2490671    5.8535058 
C    -2.8300295    1.5876219    4.0896657 
C    -2.0252549    0.6826031    3.3757900 
C    -3.8830981    0.9988591    5.0706486 
C    -5.1396669    1.8906778    5.2367815 
C    -3.2326940    0.7376616    6.4545747 
C    -4.3815773   -0.3778091    4.5440844 
H    -1.4857224   -3.5596440   -7.4115100 
H    -0.2578494   -2.6348987   -6.4953324 
H    -0.4502457   -4.3944027   -6.2117666 
H    -3.7311661   -4.1951195   -6.2429967 
H    -2.6219340   -5.3004585   -5.4008139 
H    -3.7589189   -4.2860037   -4.4661877 
H    -3.5219083   -1.5739898   -4.9154856 
H    -3.3325150   -2.0074662   -6.6362097 
H    -2.0978949   -1.0169727   -5.8377450 
H    -1.5628413   -0.8710273   -3.8594178 
H    -2.5611882   -5.4476455   -2.5975770 
H    -1.3057761   -6.6967084   -2.2742254 
H    -2.3230571   -6.8213914   -3.7467056 
H     3.3005759   -5.3323800   -0.9699856 
H     2.6453943   -3.7279088   -0.6112709 
H     3.2013695   -4.1108235   -2.2679800 
H     0.6571539   -6.8839654   -2.8814105 
H     1.8874829   -5.8959488   -3.7010627 
H     2.3312498   -6.8931874   -2.2858304 
H     0.5052123   -4.7462492    0.2747218 
H    -0.3880935   -5.9852470   -0.6302455 
H     1.2342956   -6.3643872    0.0174503 
H     1.3107655   -2.4293138   -1.0879476 
H     1.5221639    2.6435356   -1.6781594 
H     1.5512458    5.8900311   -4.8461742 
H     2.5001098    6.8383167   -3.6629976 
H     3.3292287    5.7862933   -4.8271230 
H     0.2491542    5.2320967   -2.6274036 
H     1.4668869    6.2029418   -1.7496803 
H     1.1465412    4.5261367   -1.2592347 
H     4.5059700    4.3409005   -3.0338265 
H     3.9514957    5.6440177   -1.9421642 
H     3.6252299    3.9354292   -1.5363208 
H     4.4918960    3.9369408   -5.2532066 
H     4.2195487    2.6354948   -6.4609664 
H     4.2073100    4.3636975   -6.9813396 
H     0.5487081   -0.1535859   -4.7835398 
H     2.8130304    2.2924958   -8.0750584 
H     1.2772602    3.1972425   -7.9731354 
H     1.4168676    1.7649130   -9.0353190 
H     3.0086682   -0.0396282   -7.0763553 
H     1.5733848   -0.9012923   -6.4647936 
H     1.6947058   -0.4995250   -8.1986348 
H    -0.8190041    2.0488096   -6.9983200 
H    -0.7451891    0.3539304   -6.4479247 
H    -0.5239851    0.7332002   -8.1758008 
H    -0.9352611    2.6612821   -2.7489035 
H    -2.9770364    3.8722408   -2.1667989 
H    -5.9153794    0.7752637    1.8683581 
H    -4.6681266    2.0521066    2.0946237 
H    -6.5722916    2.9840420    0.8107283 
H    -6.4616039    1.6572905   -0.3892744 
H    -5.5030336    4.0303386   -2.1861191 
H    -4.4872844    5.0255428   -1.0867597 
H    -6.1735402    4.6616803   -0.6437521 
H    -5.3601299   -2.0300302   -2.7216177 
H    -3.8375682   -2.9551111   -2.9683421 
H    -5.5088927   -4.4328319   -1.9036431 
H    -5.7717843   -3.2499514   -0.5830133 
H    -4.7266111   -6.1306623   -0.6200940 
H    -4.4447565   -5.4813092    1.0307011 
H    -3.0702498   -6.0706002    0.0368967 
H    -0.4975642   -3.0171628    2.2931163 
H    -2.0591287   -4.6693436    1.3742998 
H     0.2034453    0.3766027    4.6023179 
H     1.1589327    1.5572020    6.1829368 
H    -0.3361628    0.6940841    6.6385921 
H     0.7895898    1.2461435    7.8996014 
H     0.6594103   -0.9622832    8.8234544 
H    -0.2001268   -1.7734646    7.4836890 
H     1.3919051   -2.3809880    8.0423619 
H     3.5433732   -1.1675348    7.3745166 
H     2.9302716    0.2075810    8.3423449 
H     3.4541617    0.4678691    6.6548016 
H     1.1563767   -4.0634539    6.6549331 
H     2.7394331   -4.6465213    7.2931371 
H     2.3016160   -4.9247541    5.5694648 
H     1.9123376   -2.2908942    1.7098231 
H     5.2029541   -3.6824118    1.7196061 
H     3.7708541   -2.7638096    1.2164533 
H     4.9076573   -2.0568277    2.4009457 
H     4.3416567   -4.6794890    5.0990582 
H     5.1436838   -3.1199503    4.7839460 
H     5.5348686   -4.5555935    3.7935359 
H     2.2408253   -4.7116560    1.9295831 
H     3.7119697   -5.6391859    2.3354965 
H     2.4071822   -5.4543323    3.5412564 
H    -0.2444700    2.7658389    1.3583174 
H    -0.9819178    6.8509207    2.9397897 
H    -1.7752793    5.9467432    4.2463624 
H    -0.1369118    5.4703272    3.7008687 
H    -3.6196343    4.6720914    1.2045164 
H    -3.1661364    6.3731087    1.5425396 
H    -3.8232762    5.3409988    2.8500044 
H    -1.2621483    4.4002245    0.2011343 
H     0.1738712    4.8158448    1.1866753 
H    -0.9453985    6.0944755    0.6621817 
H    -3.1730145    3.5727037    6.6215990 
H    -3.0652576    5.2804871    6.0842717 
H    -1.6531035    4.1801141    5.8672746 
H    -2.1432131   -0.3907263    3.5407196 
H    -4.9397926    2.8250137    5.7770271 
H    -5.5711520    2.1602486    4.2581474 
H    -5.9033690    1.3294520    5.8033312 
H    -2.4122083    0.0051708    6.3608140 
H    -3.9808346    0.3237568    7.1542285 
H    -2.8167484    1.6537716    6.9026741 
H    -5.2265726   -0.7191576    5.1663277 
H    -4.7182067   -0.3211806    3.4962811 
H    -3.6039283   -1.1576489    4.6032210 
