227
Energy =
C     3.6809571   -0.2492032   -0.7376934 
C     3.7955976    0.7803478    0.2271025 
C     3.4099198    0.5672449    1.5863181 
H     4.0172686    1.8021967   -0.1072330 
Pd    1.6790103    0.1945037    0.2285425 
P     0.0002822   -0.2016047    1.8055296 
P     0.2934548    0.1255731   -1.6238197 
H     3.6204727   -1.2819055   -0.3591831 
H     3.5489503   -0.4378454    2.0070425 
C     4.5744026   -0.0285604   -4.9389859 
C     4.8747980    1.0605808   -4.1068007 
C     4.5828276    1.0124943   -2.7404815 
C     3.9987151   -0.1399131   -2.1698958 
C     3.7144621   -1.2350369   -3.0189453 
C     3.9877298   -1.1781211   -4.3882752 
H     4.8059246    0.0147853   -6.0080591 
H     5.3478186    1.9542005   -4.5237569 
H     4.8295444    1.8727800   -2.1112935 
H     3.2594983   -2.1344755   -2.5973662 
H     3.7465387   -2.0350724   -5.0263848 
C     3.3251143    3.7830569    4.4512299 
C     2.9710011    4.0261246    3.1136074 
C     2.9828573    2.9824556    2.1838608 
C     3.3461887    1.6692629    2.5666389 
C     3.6710121    1.4329289    3.9201719 
C     3.6751574    2.4841535    4.8472816 
H     3.3248063    4.6005268    5.1795186 
H     2.6829240    5.0340629    2.7965722 
H     2.6854919    3.1790497    1.1482725 
H     3.9362176    0.4188479    4.2391265 
H     3.9558727    2.2894942    5.8870312 
C     0.7752252   -5.1151807   -0.4163608 
C     1.3063589   -5.0714909   -1.8762010 
C     0.9808568   -6.4564050   -2.4855617 
C     2.8430639   -4.8796711   -1.8383632 
C     0.6211272   -3.8630580   -2.5715198 
C     0.6867732   -2.6162258   -1.9203837 
C    -0.1217461   -3.9014573   -3.7840229 
O     0.0060200   -4.9772473   -4.6420372 
C     1.2280366   -4.9771377   -5.3923115 
C    -1.0278349   -2.8614560   -4.1525014 
C    -2.0403372   -3.0150615   -5.3154910 
C    -3.0911467   -1.8793458   -5.2784110 
C    -2.8116254   -4.3551986   -5.2021110 
C    -1.3148034   -2.9567077   -6.6845395 
C    -0.9641955   -1.6675997   -3.4158688 
C    -0.0342487   -1.5050518   -2.3726729 
C     1.0012503    1.2070188   -2.9313614 
C     1.5856838    2.4195603   -2.5174991 
C     2.0541334    3.3688925   -3.4378104 
C     2.5925533    4.7339096   -2.9419646 
C     2.6587255    4.7841241   -1.3990032 
C     4.0201983    5.0464975   -3.4584629 
C     1.6147192    5.8408046   -3.4186810 
C     1.9203762    3.0583767   -4.8266575 
O     2.4240491    3.9664590   -5.7373191 
C     3.6159978    3.5760168   -6.4299900 
C     1.2364848    1.8967695   -5.2783445 
C     0.8503301    0.9603809   -4.2968533 
C     0.7820165    1.5855119   -6.7342961 
C    -0.7216600    1.1852145   -6.6831164 
C     0.8560258    2.7688202   -7.7303355 
C     1.5946537    0.3894378   -7.2910658 
C    -1.3319152    0.8918137   -1.2745284 
C    -1.6476196    2.1734191   -1.7611048 
C    -2.8555035    2.7939564   -1.4335911 
C    -2.2536328    0.2268350   -0.4219859 
C    -3.4677020    0.8632421   -0.1009866 
C    -3.7961533    2.1627835   -0.5934277 
O    -4.3448334    0.1557579    0.6786442 
C    -5.3721311    0.9312117    1.2997657 
C    -6.0342604    1.8562723    0.2904444 
N    -5.0179858    2.7494565   -0.2558959 
C    -5.4899273    3.9120679   -0.9973078 
C    -2.0600592   -1.1583930    0.1242836 
C    -2.9068312   -2.1582169   -0.3787789 
C    -2.9566226   -3.4710558    0.1816411 
O    -3.7123421   -1.8196527   -1.4380661 
C    -4.9133309   -2.5921621   -1.5349088 
C    -4.5808553   -4.0792399   -1.5351090 
N    -3.8474059   -4.4059607   -0.3199071 
C    -3.7863735   -5.7933000    0.1122988 
C    -1.1778092   -1.4732872    1.1987969 
C    -1.2210007   -2.7653317    1.7527891 
C    -2.0904807   -3.7425150    1.2627086 
C     0.8378643   -0.9715686    3.2453117 
C     1.6504745   -2.0860395    2.9816932 
C     2.3585094   -2.7638284    3.9879196 
C     3.2869536   -3.9285583    3.5448580 
C     4.0277024   -3.5146655    2.2397365 
C     4.3969932   -4.2814725    4.5654701 
C     2.4322613   -5.1838316    3.2318081 
C     2.1654802   -2.2975699    5.3214864 
O     2.6655522   -3.0106322    6.3934686 
C     1.9019695   -4.1620176    6.7739657 
C     1.5015089   -1.0667474    5.6017584 
C     0.8267815   -0.4327127    4.5403250 
C     1.5360098   -0.4111355    7.0067639 
C     0.9900681    1.0357033    6.9586898 
C     0.6656139   -1.2041501    8.0148841 
C     2.9969812   -0.3326551    7.5257824 
C    -1.0648766    1.1301930    2.4544983 
C    -0.8867926    2.4491748    2.0195671 
C    -1.7193378    3.4831255    2.4767735 
C    -1.4599748    4.9423226    2.0271859 
C    -0.3239510    5.0029115    0.9807595 
C    -1.0213709    5.7680887    3.2650857 
C    -2.7035753    5.5937292    1.3697149 
C    -2.7327218    3.1430103    3.4237875 
O    -3.5702123    4.1648573    3.8297358 
C    -4.9008304    4.1320504    3.3027341 
C    -2.8508839    1.8368249    3.9880968 
C    -2.0417195    0.8354054    3.4164190 
C    -3.7195796    1.4488884    5.2245788 
C    -5.0423077    0.7609884    4.8025219 
C    -4.0221233    2.6434874    6.1644809 
C    -2.9333047    0.4219460    6.0883973 
H     1.2474964   -5.9516714    0.1282722 
H     0.9847586   -4.1873611    0.1400795 
H    -0.3177172   -5.2608492   -0.4048012 
H     1.3457806   -7.2339918   -1.7909602 
H    -0.1038588   -6.5952725   -2.6201771 
H     1.4707292   -6.6302338   -3.4542515 
H     3.2674972   -4.7911715   -2.8535862 
H     3.3230244   -5.7415512   -1.3418259 
H     3.1239439   -3.9736560   -1.2728054 
H     1.3067338   -2.4987391   -1.0242405 
H     1.1830809   -5.8513526   -6.0589720 
H     2.1114312   -5.0613757   -4.7324442 
H     1.3210528   -4.0535019   -5.9943135 
H    -3.8610054   -2.0727691   -6.0451317 
H    -2.6523650   -0.8916674   -5.4992023 
H    -3.5871669   -1.8213864   -4.2941609 
H    -2.1331383   -5.2192221   -5.2405635 
H    -3.3762619   -4.3961874   -4.2544655 
H    -3.5368982   -4.4372268   -6.0310788 
H    -0.6879022   -2.0517498   -6.7647046 
H    -0.6794060   -3.8410157   -6.8408044 
H    -2.0580629   -2.9301216   -7.5015027 
H    -1.6278776   -0.8352851   -3.6593027 
H     1.6634193    2.6136828   -1.4436548 
H     3.3660296    4.0358190   -0.9983979 
H     3.0153645    5.7786654   -1.0816628 
H     1.6753851    4.6215435   -0.9300154 
H     4.7074529    4.2031611   -3.2687597 
H     4.4174693    5.9294487   -2.9274584 
H     4.0238252    5.2768573   -4.5319621 
H     0.6048699    5.6693148   -3.0047972 
H     1.9640323    6.8311029   -3.0743262 
H     1.5479672    5.8563383   -4.5180669 
H     4.5030910    3.7046379   -5.7842515 
H     3.5679451    2.5240387   -6.7614925 
H     3.7056814    4.2394636   -7.3034456 
H     0.3826483    0.0259184   -4.6135814 
H    -1.3302834    2.0038045   -6.2608483 
H    -0.8991721    0.2828818   -6.0783846 
H    -1.0847354    0.9739264   -7.7040642 
H     0.3982857    3.6803221   -7.3146921 
H     1.8809909    3.0083659   -8.0442851 
H     0.3000101    2.4871393   -8.6419669 
H     1.5193178   -0.4911955   -6.6288947 
H     2.6642384    0.6429968   -7.3883152 
H     1.2192469    0.1038137   -8.2900131 
H    -0.9539573    2.6946268   -2.4256614 
H    -3.0727219    3.7770614   -1.8566677 
H    -6.0884856    0.2084165    1.7181814 
H    -4.9276528    1.5201399    2.1200597 
H    -6.8078162    2.4611890    0.7955556 
H    -6.5339556    1.2585510   -0.5030026 
H    -5.6656470    3.6903075   -2.0709137 
H    -4.7666247    4.7410174   -0.9247120 
H    -6.4359021    4.2526340   -0.5482007 
H    -5.5793742   -2.3385930   -0.6877349 
H    -5.3927564   -2.2935305   -2.4794698 
H    -3.9970637   -4.3260845   -2.4457016 
H    -5.5146142   -4.6683812   -1.5629342 
H    -4.6146436   -6.3463980   -0.3562566 
H    -3.9023036   -5.8716890    1.2083235 
H    -2.8320832   -6.2825148   -0.1734070 
H    -0.5729300   -3.0231024    2.5937463 
H    -2.0873941   -4.7307053    1.7279054 
H     1.7331019   -2.4343333    1.9468332 
H     3.3436995   -3.3548460    1.3891272 
H     4.6141456   -2.5915662    2.3927757 
H     4.7258369   -4.3166808    1.9444538 
H     5.1197723   -4.9606333    4.0796531 
H     4.9394595   -3.3798293    4.8948831 
H     4.0163444   -4.7923806    5.4599118 
H     1.9051062   -5.5503422    4.1286091 
H     3.0732328   -6.0018855    2.8563208 
H     1.6729426   -4.9606226    2.4629401 
H     2.3127777   -4.4996919    7.7374184 
H     1.9961839   -4.9774664    6.0337711 
H     0.8326072   -3.9086553    6.8932525 
H     0.2794010    0.4931445    4.7223979 
H     1.1105565    1.4990487    7.9528248 
H     1.5300160    1.6573190    6.2255214 
H    -0.0840625    1.0681122    6.7120641 
H     1.0931188   -2.1930720    8.2344762 
H    -0.3610417   -1.3376788    7.6298436 
H     0.6032101   -0.6500301    8.9686374 
H     3.6305851    0.2304775    6.8197012 
H     3.0170812    0.1946868    8.4961459 
H     3.4332635   -1.3326743    7.6594844 
H    -0.0948763    2.6498888    1.2950906 
H    -0.1510329    6.0537720    0.6914844 
H     0.6250142    4.6099223    1.3794338 
H    -0.5826200    4.4375088    0.0677020 
H    -1.8102992    5.7714087    4.0336965 
H    -0.8149248    6.8130542    2.9699427 
H    -0.1009827    5.3444998    3.7049135 
H    -3.4733396    5.8533331    2.1085584 
H    -3.1403409    4.9172594    0.6160583 
H    -2.4047450    6.5274419    0.8608996 
H    -5.5046756    3.3338291    3.7725063 
H    -4.8891170    3.9835360    2.2073207 
H    -5.3541017    5.1062867    3.5422429 
H    -2.1466265   -0.1998789    3.7520821 
H    -5.7162925    1.4491973    4.2657590 
H    -4.8443368   -0.1076076    4.1502288 
H    -5.5803389    0.4027287    5.6981736 
H    -3.1038171    3.2068520    6.3995934 
H    -4.4374645    2.2518529    7.1097702 
H    -4.7538217    3.3500184    5.7503098 
H    -3.5021729    0.2101643    7.0099906 
H    -2.7728451   -0.5411734    5.5763944 
H    -1.9488678    0.8228168    6.3793852 
