227
Energy =
C    -3.9985128    0.7395294    0.1215868 
C    -3.9946222   -0.2118382   -0.9453876 
C    -3.6528388   -1.5679907   -0.7379701 
H    -4.1100110    0.1547273   -1.9735792 
Pd   -1.9664805   -0.1463689   -0.1075561 
P    -0.1601574   -1.4530550   -0.8328355 
P    -0.5860576    1.5428682    0.6962232 
H    -4.2580035    0.3792181    1.1280204 
H    -3.7530614   -1.9614248    0.2849533 
C    -4.6029573    4.9539627   -0.5490919 
C    -3.9907003    4.1661814   -1.5376155 
C    -3.7930660    2.7981731   -1.3253136 
C    -4.2044039    2.1818656   -0.1204188 
C    -4.8126764    2.9876797    0.8652859 
C    -5.0132753    4.3563456    0.6511997 
H    -4.7591391    6.0249616   -0.7142261 
H    -3.6584787    4.6218562   -2.4768310 
H    -3.2822474    2.2056645   -2.0908415 
H    -5.1346222    2.5329446    1.8067253 
H    -5.4960649    4.9583683    1.4262361 
C    -3.2514919   -4.6601740   -3.7107834 
C    -3.3282293   -4.9743666   -2.3467257 
C    -3.4722174   -3.9580058   -1.3970788 
C    -3.5429802   -2.6003327   -1.7845581 
C    -3.4910958   -2.3027412   -3.1660289 
C    -3.3422139   -3.3185993   -4.1143717 
H    -3.1289061   -5.4543903   -4.4546200 
H    -3.2698537   -6.0158219   -2.0196170 
H    -3.5164284   -4.2130139   -0.3345023 
H    -3.5552930   -1.2666992   -3.5072979 
H    -3.2936497   -3.0614388   -5.1772697 
C     2.9705972   -2.3470919   -6.5861677 
C     2.4213363   -2.9253246   -5.2575001 
C     3.6066867   -2.9051900   -4.2507874 
C     2.0097619   -4.4089312   -5.4508436 
C     1.2226234   -2.1231269   -4.6796658 
C     1.0767819   -2.0804707   -3.2806299 
C     0.2518867   -1.4107023   -5.4438367 
O     0.2506787   -1.4656656   -6.8249775 
C    -0.3213586   -2.6302340   -7.4359205 
C    -0.6998874   -0.5366859   -4.8350852 
C    -1.5489501    0.4641022   -5.6603749 
C    -2.5717945   -0.2474804   -6.5803359 
C    -0.6024036    1.3493026   -6.5140594 
C    -2.3515381    1.4059408   -4.7330573 
C    -0.8047332   -0.5726540   -3.4349051 
C     0.0298931   -1.3878971   -2.6577806 
C    -0.4195562   -3.2005951   -0.3226544 
C    -1.0886513   -3.4230036    0.8953165 
C    -1.3835696   -4.7163749    1.3565564 
C    -2.1208159   -4.9210608    2.7038823 
C    -2.4611668   -3.5653217    3.3605693 
C    -3.4601078   -5.6858541    2.5390026 
C    -1.1943793   -5.7057223    3.6699742 
C    -0.9426386   -5.8128644    0.5538484 
O    -1.3061114   -7.0816728    0.9590861 
C    -2.3149278   -7.7212990    0.1678725 
C    -0.1216988   -5.6268610   -0.5922918 
C     0.0545787   -4.3020893   -1.0402234 
C     0.6491565   -6.7314529   -1.3690399 
C     2.1030650   -6.2240691   -1.6038393 
C     0.8022620   -8.0765189   -0.6160529 
C    -0.0184826   -6.9706774   -2.7472937 
C     1.5269734   -1.0416437   -0.2577387 
C     2.2821488   -1.9674564    0.4801648 
C     3.5725215   -1.6570848    0.9189139 
C     2.0727218    0.2415444   -0.5377192 
C     3.3603007    0.5508782   -0.0654797 
C     4.1456813   -0.3942172    0.6625433 
O     3.8284755    1.8025408   -0.3569846 
C     5.0000128    2.2207836    0.3468430 
C     6.0309358    1.1023906    0.4010639 
N     5.4334626   -0.0473780    1.0727765 
C     6.3355076   -1.0799476    1.5615077 
C     1.3691830    1.3055257   -1.3299977 
C     1.8809177    1.6166831   -2.6036115 
C     1.3558652    2.6904087   -3.3880367 
O     2.9351234    0.8657194   -3.0483700 
C     3.2023221    0.9561017   -4.4521857 
C     3.2372260    2.4106599   -4.8980231 
N     1.9427880    3.0121520   -4.6064189 
C     1.5771775    4.2422252   -5.2932230 
C     0.2628307    2.0531578   -0.8336481 
C    -0.3115751    3.0535055   -1.6401865 
C     0.2414706    3.3893815   -2.8771995 
C    -1.3396649    3.0124103    1.5043977 
C    -2.0916247    2.7227216    2.6501204 
C    -2.5016196    3.7184215    3.5548474 
C    -3.0690880    3.2368593    4.9204721 
C    -4.4798808    2.6257845    4.7327355 
C    -2.1179573    2.1260133    5.4563546 
C    -3.1163427    4.3171003    6.0292668 
C    -2.2665790    5.0673232    3.1638227 
O    -2.7904336    6.1088373    3.9046077 
C    -4.1967879    6.3310368    3.7582997 
C    -1.4340723    5.3980346    2.0535645 
C    -0.9709557    4.3421292    1.2509103 
C    -0.9772661    6.8491898    1.7627762 
C     0.0217162    6.8971776    0.5824284 
C    -2.1784330    7.7522527    1.3827782 
C    -0.2578132    7.4295482    3.0095485 
C     0.7014764    1.2063854    1.9693987 
C     0.6549776    0.0718714    2.7786386 
C     1.5209352   -0.0862578    3.8856775 
C     1.2633521   -1.3124188    4.8039918 
C     2.1107422   -1.4074307    6.0953932 
C     1.4718685   -2.6158038    3.9938586 
C    -0.2123390   -1.2138735    5.2853084 
C     2.4720489    0.9403746    4.1047020 
O     3.4437107    0.7853460    5.0777166 
C     4.5835205    0.0544555    4.6093802 
C     2.4545829    2.1734721    3.3807525 
C     1.5803907    2.2577738    2.2913431 
C     3.1718610    3.4462741    3.9036685 
C     4.6963526    3.2968228    4.1394629 
C     2.4942760    3.8016241    5.2572091 
C     2.9621640    4.6376301    2.9400151 
H     3.8977289   -2.8837227   -6.8537347 
H     2.2708762   -2.4434285   -7.4260093 
H     3.2158684   -1.2767920   -6.4811587 
H     4.4943801   -3.3538596   -4.7281901 
H     3.8590086   -1.8781578   -3.9373052 
H     3.4017456   -3.4938595   -3.3409049 
H     1.6875530   -4.8491508   -4.4920655 
H     2.8664325   -4.9967462   -5.8269084 
H     1.1792707   -4.5224764   -6.1646129 
H     1.8161238   -2.5797513   -2.6517062 
H     0.4497812   -3.3975137   -7.6309695 
H    -0.7502105   -2.3099940   -8.3990474 
H    -1.1152857   -3.0630184   -6.8015125 
H    -3.2045597    0.5065652   -7.0815621 
H    -3.2368146   -0.9092429   -5.9992152 
H    -2.0811093   -0.8399278   -7.3638008 
H     0.1335766    1.8559845   -5.8673987 
H    -0.0574417    0.7454527   -7.2549265 
H    -1.1886345    2.1178569   -7.0497113 
H    -1.6960025    1.9497787   -4.0325461 
H    -2.8881362    2.1495861   -5.3468646 
H    -3.1135322    0.8600770   -4.1483648 
H    -1.5340294    0.0554699   -2.9160338 
H    -1.4221916   -2.5520455    1.4668433 
H    -3.1601827   -2.9705096    2.7441915 
H    -2.9466501   -3.7441170    4.3348839 
H    -1.5615697   -2.9602141    3.5485050 
H    -4.0881895   -5.2340254    1.7501507 
H    -4.0271588   -5.6373970    3.4854534 
H    -3.3012693   -6.7469527    2.3055127 
H    -0.2562224   -5.1515197    3.8426680 
H    -1.6967171   -5.8450656    4.6442451 
H    -0.9477849   -6.6966598    3.2584927 
H    -2.4774551   -8.7124745    0.6168579 
H    -3.2591548   -7.1473497    0.1907618 
H    -1.9949607   -7.8438229   -0.8819056 
H     0.5927563   -4.1345014   -1.9738302 
H     2.5985910   -5.9982034   -0.6434457 
H     2.1457529   -5.3185215   -2.2296519 
H     2.6875053   -7.0055202   -2.1196347 
H     1.5434978   -8.6931969   -1.1542765 
H     1.1643664   -7.9233166    0.4133918 
H    -0.1272696   -8.6598852   -0.5682213 
H    -0.1096961   -6.0297501   -3.3172686 
H    -1.0331942   -7.3899836   -2.6370709 
H     0.5799336   -7.6817447   -3.3443319 
H     1.8692196   -2.9547766    0.7036348 
H     4.1419299   -2.4151468    1.4610738 
H     5.3834091    3.0977949   -0.1972274 
H     4.7178943    2.5221640    1.3710390 
H     6.9086627    1.4386701    0.9794107 
H     6.3721233    0.8518465   -0.6269613 
H     6.5785175   -1.8377157    0.7867441 
H     5.8959243   -1.6001775    2.4289357 
H     7.2707142   -0.6022516    1.8928612 
H     4.1750038    0.4659248   -4.6072503 
H     2.4215181    0.4031392   -5.0073158 
H     3.4188476    2.4592861   -5.9855358 
H     4.0683702    2.9421696   -4.3859665 
H     2.1246588    4.2873792   -6.2468732 
H     1.8213203    5.1475397   -4.6994518 
H     0.4975692    4.2546475   -5.5243346 
H    -1.1988018    3.5904063   -1.2977743 
H    -0.2002369    4.2075634   -3.4500393 
H    -2.3049746    1.6721307    2.8782411 
H    -5.1972160    3.3711804    4.3467768 
H    -4.4564640    1.7778566    4.0249629 
H    -4.8668214    2.2504052    5.6968085 
H    -2.4597440    1.7940002    6.4523523 
H    -2.0914976    1.2380354    4.8052054 
H    -1.0851047    2.5044320    5.5507453 
H    -3.9141862    5.0581282    5.8819689 
H    -2.1580708    4.8543470    6.1116539 
H    -3.3148932    3.8147661    6.9925327 
H    -4.4315283    6.7084657    2.7461662 
H    -4.4710619    7.0907980    4.5055587 
H    -4.7780291    5.4089832    3.9389207 
H    -0.2978744    4.5579368    0.4216137 
H     0.3471250    7.9405428    0.4300097 
H     0.9252301    6.2932202    0.7779415 
H    -0.4326054    6.5484653   -0.3622532 
H    -2.8364424    7.9333584    2.2439965 
H    -2.7708822    7.2974197    0.5695799 
H    -1.8108467    8.7335544    1.0331255 
H     0.6280550    6.8223118    3.2650958 
H     0.0832462    8.4593369    2.7993529 
H    -0.9290614    7.4542050    3.8809684 
H    -0.0822718   -0.7056859    2.5500834 
H     1.7088410   -2.2372671    6.7042956 
H     3.1684729   -1.6362862    5.8976683 
H     2.0614574   -0.4842721    6.6919288 
H     0.8219770   -2.6663184    3.1038714 
H     1.2530248   -3.4940600    4.6265075 
H     2.5163374   -2.6936590    3.6459495 
H    -0.9261621   -1.1272428    4.4507828 
H    -0.3435757   -0.3295464    5.9315166 
H    -0.4807200   -2.1123025    5.8688110 
H     4.3017445   -0.9744989    4.3138198 
H     5.2986688    0.0147077    5.4451855 
H     5.0434045    0.5524426    3.7364112 
H     1.5436056    3.1683970    1.6910316 
H     4.9132088    2.6299927    4.9847852 
H     5.2140002    2.9117217    3.2437955 
H     5.1266015    4.2872400    4.3712081 
H     1.4106750    3.9635443    5.1175556 
H     2.9330933    4.7276283    5.6710074 
H     2.6393307    2.9904110    5.9896389 
H     3.4540339    5.5334558    3.3559039 
H     3.3962582    4.4474549    1.9418714 
H     1.8936828    4.8778932    2.8093738 
