227
Energy =
C     3.7768391   -0.2204652   -0.8194563 
C     3.8632854    0.8264664    0.1278410 
C     3.4942799    0.6048617    1.4919146 
H     4.0547264    1.8497890   -0.2183620 
Pd    1.7654592    0.1756669    0.1678753 
P     0.1356278   -0.2096436    1.7853513 
P     0.3075349    0.1265876   -1.6373471 
H     3.7604287   -1.2464317   -0.4181748 
H     3.6779239   -0.3934321    1.9098912 
C     4.6882285   -0.1163211   -5.0160930 
C     4.3484903   -1.3217479   -4.3820943 
C     4.0389255   -1.3303247   -3.0188740 
C     4.0727129   -0.1399621   -2.2554804 
C     4.4027675    1.0668917   -2.9129997 
C     4.7005077    1.0784446   -4.2785740 
H     4.9402232   -0.1054681   -6.0813756 
H     4.3272067   -2.2572836   -4.9510148 
H     3.7739173   -2.2719786   -2.5261964 
H     4.4335194    2.0046774   -2.3528754 
H     4.9479395    2.0246109   -4.7700406 
C     3.1678508    3.7560987    4.4118279 
C     3.4608034    2.4427839    4.8065633 
C     3.5525861    1.4176848    3.8556377 
C     3.3717831    1.6921779    2.4816483 
C     3.0664515    3.0202703    2.0991120 
C     2.9676209    4.0392119    3.0503261 
H     3.0968719    4.5541661    5.1581860 
H     3.6243224    2.2155151    5.8643485 
H     3.7721890    0.3927223    4.1749126 
H     2.8857878    3.2516512    1.0447038 
H     2.7317144    5.0596918    2.7303867 
C     0.1817392   -6.3435644   -2.0339506 
C     1.1115588   -5.1044621   -2.0669386 
C     2.4239645   -5.4098258   -2.8352586 
C     1.5135183   -4.8334896   -0.5901624 
C     0.3937956   -3.8649105   -2.6679478 
C     0.6337945   -2.6131195   -2.0721816 
C    -0.5242640   -3.8887771   -3.7634145 
O    -0.7835473   -5.0560603   -4.4557073 
C     0.1760386   -5.5656269   -5.3897807 
C    -1.2949537   -2.7439937   -4.1391347 
C    -2.3207155   -2.7511369   -5.3062719 
C    -3.3762526   -3.8785832   -5.1760128 
C    -1.5708062   -2.9083178   -6.6547311 
C    -3.1000443   -1.4149281   -5.3673543 
C    -1.0588186   -1.5504865   -3.4383985 
C    -0.0629545   -1.4636792   -2.4534719 
C     0.9546184    1.2524254   -2.9360962 
C     1.5087879    2.4805851   -2.5300211 
C     1.9318907    3.4430192   -3.4601276 
C     2.5806489    4.7646626   -2.9747172 
C     1.6330044    5.9637313   -3.2329491 
C     2.8580389    4.7265537   -1.4545315 
C     3.9472233    4.9992063   -3.6715992 
C     1.7541248    3.1401948   -4.8457034 
O     2.0841514    4.1351260   -5.7450094 
C     1.0259211    4.8467195   -6.3987280 
C     1.3410172    1.8514267   -5.2886138 
C     0.9255408    0.9393759   -4.2978801 
C     1.2945429    1.3823250   -6.7679031 
C     1.4884700   -0.1561149   -6.8471506 
C    -0.1014267    1.6933366   -7.3707569 
C     2.4223570    1.9984701   -7.6338186 
C    -1.3326670    0.8221257   -1.2174926 
C    -1.7318632    2.0830289   -1.6967618 
C    -2.9798930    2.6213949   -1.3760993 
C    -2.2170788    0.0852560   -0.3798546 
C    -3.4744710    0.6339890   -0.0738745 
C    -3.8949820    1.9067338   -0.5711161 
O    -4.3058527   -0.1099367    0.7286212 
C    -5.6994497    0.1728145    0.5665856 
C    -5.9518197    1.6678560    0.7184697 
N    -5.1631107    2.3796144   -0.2769881 
C    -5.5989927    3.6937825   -0.7221935 
C    -1.9260082   -1.2851371    0.1650950 
C    -2.6990751   -2.3507735   -0.3272021 
C    -2.6175052   -3.6689576    0.2228449 
O    -3.5524408   -2.0699708   -1.3641231 
C    -4.6069306   -3.0154726   -1.5674419 
C    -4.0558621   -4.4376463   -1.5704538 
N    -3.4128507   -4.6813492   -0.2872084 
C    -3.3291479   -6.0346668    0.2360579 
C    -1.0071524   -1.5333137    1.2271552 
C    -0.9422697   -2.8225135    1.7853424 
C    -1.7295730   -3.8686856    1.3005563 
C     0.9538253   -0.9037634    3.2731079 
C     0.7852250   -0.3815735    4.5634163 
C     1.3895448   -0.9829697    5.6823642 
C     1.2378298   -0.3386620    7.0839673 
C     2.6316053   -0.1632977    7.7429865 
C     0.5938640    1.0654054    6.9806026 
C     0.3329085   -1.1985535    8.0026975 
C     2.1530836   -2.1674122    5.4619756 
O     2.5813739   -2.8691970    6.5719998 
C     1.8403195   -4.0641132    6.8504901 
C     2.5035292   -2.6051296    4.1514089 
C     1.8546694   -1.9623102    3.0827284 
C     3.5406807   -3.7041597    3.7894805 
C     2.7982094   -4.9768416    3.3058349 
C     4.4259076   -3.1832635    2.6200038 
C     4.5234786   -4.0675302    4.9296644 
C    -0.9295147    1.1377832    2.3893493 
C    -0.7016027    2.4608442    1.9934269 
C    -1.4679107    3.5152208    2.5156613 
C    -1.2775901    4.9543825    1.9760350 
C    -0.2743303    4.9714095    0.7994344 
C    -0.7265488    5.9132331    3.0622512 
C    -2.6308960    5.4814260    1.4332990 
C    -2.4398403    3.1920776    3.5114316 
O    -3.0919163    4.2541610    4.1105581 
C    -2.6660960    4.6047200    5.4345478 
C    -2.7794141    1.8458192    3.8390145 
C    -1.9872693    0.8391173    3.2582178 
C    -3.9433537    1.4015684    4.7678581 
C    -3.4166921    1.1787961    6.2099171 
C    -4.5100133    0.0397636    4.2749673 
C    -5.1340156    2.3930735    4.7809027 
H     0.6822711   -7.1651221   -1.4919300 
H    -0.7523609   -6.0972300   -1.5002885 
H    -0.0949192   -6.7067987   -3.0321120 
H     2.9449920   -6.2658480   -2.3698566 
H     2.2530457   -5.6550109   -3.8928389 
H     3.1007516   -4.5381961   -2.7983480 
H     2.3122442   -4.0763202   -0.4998810 
H     1.9077504   -5.7647867   -0.1484625 
H     0.6511918   -4.4996086    0.0114875 
H     1.3536212   -2.5241345   -1.2552597 
H    -0.3789001   -5.9021635   -6.2816999 
H     0.7105635   -6.4330119   -4.9617806 
H     0.9043727   -4.7893229   -5.6816039 
H    -4.0126065   -3.8899795   -6.0788870 
H    -4.0350548   -3.6941235   -4.3120821 
H    -2.9092904   -4.8664763   -5.0605743 
H    -0.7925810   -2.1345733   -6.7641241 
H    -1.0943505   -3.8936043   -6.7506556 
H    -2.2818574   -2.7983172   -7.4931374 
H    -3.6202574   -1.2034897   -4.4164199 
H    -2.4448165   -0.5577945   -5.6024680 
H    -3.8592479   -1.4766501   -6.1658536 
H    -1.6467974   -0.6586285   -3.6605569 
H     1.5953387    2.6815033   -1.4578897 
H     0.6461374    5.7880225   -2.7686261 
H     2.0605812    6.8816684   -2.7910130 
H     1.4872413    6.1498532   -4.3056827 
H     1.9346442    4.6394958   -0.8599389 
H     3.3593429    5.6616466   -1.1522858 
H     3.5285749    3.8918669   -1.1845948 
H     3.8425716    5.0569248   -4.7638432 
H     4.3912638    5.9425462   -3.3067016 
H     4.6507033    4.1830482   -3.4293306 
H     1.3607706    5.8907072   -6.5138756 
H     0.8297969    4.4279580   -7.4025126 
H     0.0970377    4.8203336   -5.8019938 
H     0.5695076   -0.0454225   -4.6005772 
H     0.6478677   -0.7126794   -6.4019415 
H     2.4129213   -0.4715368   -6.3378981 
H     1.5500887   -0.4584026   -7.9066267 
H    -0.8906189    1.1785778   -6.7943298 
H    -0.3326024    2.7692653   -7.3675209 
H    -0.1518541    1.3372559   -8.4156004 
H     3.4062698    1.8255194   -7.1656389 
H     2.3158076    3.0794612   -7.7898822 
H     2.4228183    1.5102122   -8.6241512 
H    -1.0629318    2.6580513   -2.3425905 
H    -3.2471603    3.6060780   -1.7660283 
H    -6.0327762   -0.1750709   -0.4304556 
H    -6.2189035   -0.4038898    1.3470182 
H    -5.6986189    1.9855316    1.7510219 
H    -7.0217704    1.8826133    0.5516829 
H    -6.6723657    3.8011859   -0.5024318 
H    -5.4615047    3.8026773   -1.8132326 
H    -5.0560814    4.5167865   -0.2164139 
H    -5.3640374   -2.9034414   -0.7672044 
H    -5.0612953   -2.7536789   -2.5351455 
H    -3.3473225   -4.5661387   -2.4129302 
H    -4.8830307   -5.1552020   -1.7052036 
H    -4.1110558   -6.6456822   -0.2404555 
H    -3.5051164   -6.0419604    1.3269694 
H    -2.3469163   -6.5109663    0.0389524 
H    -0.2672286   -3.0252494    2.6196234 
H    -1.6419080   -4.8548777    1.7618920 
H     0.1644790    0.5049472    4.6962120 
H     3.1251653   -1.1323937    7.9043978 
H     3.2868004    0.4578896    7.1084491 
H     2.5209308    0.3438877    8.7180724 
H     0.5750976    1.5252625    7.9837509 
H     1.1650527    1.7316688    6.3117255 
H    -0.4471787    1.0234387    6.6188792 
H    -0.6375432   -1.4072259    7.5179631 
H     0.1345830   -0.6551309    8.9439796 
H     0.8098666   -2.1534961    8.2665035 
H     2.2105581   -4.4387286    7.8166326 
H     2.0013282   -4.8345378    6.0743174 
H     0.7576846   -3.8523172    6.9228876 
H     2.0484175   -2.3030187    2.0594867 
H     3.5235987   -5.7512766    2.9982175 
H     2.1644775   -5.4020807    4.1029394 
H     2.1476427   -4.7529907    2.4419983 
H     4.9440164   -2.2502347    2.9034497 
H     3.8500340   -2.9942966    1.6979394 
H     5.1922853   -3.9381880    2.3739097 
H     4.0550114   -4.6462063    5.7372661 
H     5.3339672   -4.6885432    4.5089010 
H     4.9753208   -3.1658152    5.3742361 
H     0.0875216    2.6529121    1.2635231 
H    -0.2047941    5.9960688    0.3948768 
H     0.7365491    4.6729854    1.1232587 
H    -0.5912660    4.3047631   -0.0215863 
H    -1.4798562    6.1417970    3.8284172 
H    -0.4295904    6.8701680    2.5963787 
H     0.1625843    5.4810664    3.5540074 
H    -3.3951943    5.5119478    2.2243296 
H    -2.9864278    4.8262198    0.6197885 
H    -2.5024182    6.5005265    1.0255237 
H    -3.1951448    4.0068467    6.1988224 
H    -2.9208261    5.6666213    5.5780668 
H    -1.5767264    4.4646247    5.5531622 
H    -2.1916893   -0.2098976    3.4848686 
H    -2.6449122    0.3894301    6.2191148 
H    -2.9704535    2.0898607    6.6393017 
H    -4.2415060    0.8573933    6.8711326 
H    -4.7365132    0.0647409    3.1976007 
H    -5.4327584   -0.1948626    4.8330309 
H    -3.8096384   -0.7948688    4.4464292 
H    -5.9890157    1.9194939    5.2946784 
H    -4.9127786    3.3350886    5.2988926 
H    -5.4482351    2.6478705    3.7542238 
