227
Energy =
C     3.6395645   -0.1735949   -0.7849592 
C     3.7152136    0.9189788    0.1089847 
C     3.3106048    0.7907334    1.4743170 
H     3.9153977    1.9182691   -0.2979952 
Pd    1.6115700    0.2675775    0.1413435 
P    -0.0009119   -0.1415216    1.7700084 
P     0.1944958    0.0981952   -1.6879626 
H     3.5769883   -1.1801638   -0.3426096 
H     3.4756699   -0.1756563    1.9687322 
C     4.7683685   -0.2319901   -4.9328704 
C     5.0889190    0.8806549   -4.1404471 
C     4.7067910    0.9266271   -2.7959963 
C     4.0085378   -0.1515988   -2.2089596 
C     3.6923270   -1.2664300   -3.0200116 
C     4.0597983   -1.3038476   -4.3677268 
H     5.0803899   -0.2681421   -5.9816741 
H     5.6571677    1.7124457   -4.5676610 
H     4.9880899    1.7921047   -2.1904449 
H     3.1430752   -2.1060434   -2.5856473 
H     3.7973406   -2.1741961   -4.9785171 
C     2.8807962    4.1385313    4.1534064 
C     2.7557744    4.3315188    2.7673862 
C     2.8875120    3.2506286    1.8909343 
C     3.1584150    1.9482510    2.3766313 
C     3.2740241    1.7678862    3.7733473 
C     3.1411808    2.8529369    4.6497601 
H     2.7789950    4.9858564    4.8393637 
H     2.5492712    5.3307847    2.3699100 
H     2.7603841    3.4160148    0.8152013 
H     3.4770420    0.7665730    4.1679711 
H     3.2508874    2.6958793    5.7275458 
C     0.8699348   -6.5002465   -2.4646598 
C     1.1665477   -5.1103580   -1.8518080 
C     2.7000638   -4.9094592   -1.7623632 
C     0.5822627   -5.1499853   -0.4120421 
C     0.5014026   -3.9057967   -2.5732526 
C     0.5581180   -2.6536740   -1.9293772 
C    -0.2109185   -3.9490659   -3.8030080 
O    -0.0689258   -5.0332386   -4.6476274 
C     1.1781802   -5.0537915   -5.3566868 
C    -1.0980304   -2.9039429   -4.2072787 
C    -2.0640935   -3.0621709   -5.4094562 
C    -3.0504501   -1.8732009   -5.4926535 
C    -2.8989430   -4.3616361   -5.2610789 
C    -1.2841652   -3.1067513   -6.7497600 
C    -1.0534624   -1.7078722   -3.4714946 
C    -0.1498765   -1.5445026   -2.4036929 
C     0.9199691    1.1235809   -3.0315362 
C     1.4463929    2.3722619   -2.6574290 
C     1.9045126    3.3081533   -3.5994668 
C     2.3507921    4.6989074   -3.0643510 
C     2.3981775    5.8307615   -4.1212197 
C     1.3373207    5.1649775   -1.9816947 
C     3.7448633    4.5702933   -2.4002194 
C     1.8952936    2.9041180   -4.9689355 
O     2.4162155    3.7540539   -5.9214878 
C     3.8097313    3.5909831   -6.1844769 
C     1.3233775    1.6719082   -5.3908996 
C     0.8668615    0.7932509   -4.3879948 
C     1.0492703    1.2249509   -6.8558571 
C    -0.4876325    1.0269406   -6.9880655 
C     1.4576135    2.2082999   -7.9768691 
C     1.7649658   -0.1232068   -7.1269363 
C    -1.4101489    0.9057676   -1.3419206 
C    -1.7365042    2.1440774   -1.9257274 
C    -2.9022803    2.8276245   -1.5749581 
C    -2.2966175    0.3352765   -0.3839361 
C    -3.4542255    1.0433802   -0.0207697 
C    -3.7886949    2.3040865   -0.6090124 
O    -4.2689928    0.4658688    0.9189430 
C    -5.6218242    0.9338920    0.9289775 
C    -5.6536554    2.4588466    0.9409648 
N    -4.9573078    2.9468925   -0.2417039 
C    -5.3881556    4.1664912   -0.9068201 
C    -2.1362568   -1.0488360    0.1786122 
C    -3.0247182   -2.0288707   -0.2970122 
C    -3.0343550   -3.3599551    0.2241437 
O    -3.9152217   -1.6388817   -1.2642309 
C    -4.5302348   -2.7023765   -1.9975215 
C    -5.0519307   -3.7794749   -1.0560697 
N    -3.9292608   -4.2943890   -0.2835515 
C    -4.0490425   -5.6069504    0.3297413 
C    -1.2071538   -1.3967003    1.1983467 
C    -1.2232549   -2.6985587    1.7276555 
C    -2.1270770   -3.6567562    1.2625465 
C     0.8750310   -0.9371812    3.1723738 
C     0.8055796   -0.4617473    4.4890657 
C     1.5102710   -1.0880285    5.5333431 
C     1.4810706   -0.4787244    6.9585222 
C     2.9325846   -0.1889938    7.4257608 
C     0.7073596    0.8614283    6.9756887 
C     0.7842915   -1.4203963    7.9738645 
C     2.2796312   -2.2457147    5.2120454 
O     2.8561817   -2.9325209    6.2622501 
C     2.2136147   -4.1609601    6.6277297 
C     2.5019213   -2.6550434    3.8633457 
C     1.7513786   -1.9927378    2.8764435 
C     3.5096288   -3.7379866    3.3860506 
C     4.6689706   -4.0045134    4.3783685 
C     2.7517254   -5.0553271    3.0777890 
C     4.1844573   -3.2608604    2.0671996 
C    -1.0411374    1.1603172    2.5043884 
C    -0.8916715    2.5053804    2.1499928 
C    -1.6962443    3.4981158    2.7334342 
C    -1.5968337    4.9619692    2.2377460 
C    -0.9917019    5.8872698    3.3229297 
C    -3.0012795    5.4653826    1.8163225 
C    -0.6912546    5.0572135    0.9878717 
C    -2.6176713    3.0916689    3.7478683 
O    -3.3158047    4.0973253    4.3908692 
C    -2.9063632    4.4422191    5.7211898 
C    -2.8726223    1.7191234    4.0415406 
C    -2.0497963    0.7790812    3.3986012 
C    -3.9777091    1.1778013    4.9903693 
C    -3.4093946    1.0131077    6.4245292 
C    -4.4335927   -0.2323293    4.5184597 
C    -5.2516658    2.0586988    5.0133002 
H     1.2168678   -7.2713896   -1.7539018 
H    -0.2085469   -6.6472323   -2.6343191 
H     1.3938572   -6.6767752   -3.4148203 
H     3.1660812   -5.7600909   -1.2340788 
H     3.1593605   -4.8368570   -2.7636753 
H     2.9573812   -3.9916596   -1.2049822 
H     0.7695826   -4.2203785    0.1492952 
H     1.0334133   -5.9855777    0.1518684 
H    -0.5103140   -5.2968983   -0.4437086 
H     1.1629813   -2.5301672   -1.0235006 
H     1.1590550   -5.9513249   -5.9928344 
H     2.0388678   -5.1092272   -4.6651391 
H     1.2872879   -4.1516563   -5.9876972 
H    -3.7710626   -2.0586871   -6.3074499 
H    -2.5381099   -0.9228563   -5.7188833 
H    -3.6226795   -1.7384962   -4.5597226 
H    -2.2526655   -5.2513252   -5.2363552 
H    -3.4985193   -4.3411841   -4.3339095 
H    -3.5962172   -4.4556153   -6.1126275 
H    -0.6032833   -2.2432394   -6.8420354 
H    -0.7006643   -4.0330924   -6.8485032 
H    -1.9957899   -3.0695272   -7.5939214 
H    -1.6989755   -0.8691322   -3.7424630 
H     1.4608477    2.6274088   -1.5918604 
H     1.4733116    5.8690698   -4.7184528 
H     2.5093284    6.7936080   -3.5911614 
H     3.2464636    5.7379623   -4.8132890 
H     0.3137827    5.2172536   -2.3920554 
H     1.6153612    6.1706355   -1.6215142 
H     1.3136169    4.5011716   -1.1031752 
H     4.5065278    4.2337177   -3.1240531 
H     4.0677903    5.5438443   -1.9900666 
H     3.7207844    3.8428496   -1.5697289 
H     4.4207590    3.8529347   -5.2992408 
H     4.0429853    2.5501909   -6.4793122 
H     4.0540146    4.2742204   -7.0118839 
H     0.4414606   -0.1692833   -4.6815091 
H    -1.0189187    1.9774601   -6.8070891 
H    -0.8724703    0.2821843   -6.2729394 
H    -0.7384523    0.6779153   -8.0055707 
H     1.0092364    3.2034208   -7.8414716 
H     2.5490118    2.3266818   -8.0562711 
H     1.1047592    1.7936800   -8.9384551 
H     1.4890252   -0.8986466   -6.3917219 
H     2.8595472    0.0030983   -7.0845047 
H     1.4989010   -0.4962544   -8.1321695 
H    -1.0730299    2.5909684   -2.6699975 
H    -3.1177492    3.7870657   -2.0508376 
H    -6.1521270    0.5424504    0.0395363 
H    -6.0782404    0.5157548    1.8390548 
H    -5.1845005    2.8356479    1.8729334 
H    -6.6989096    2.8098649    0.9171152 
H    -6.4018743    4.4178766   -0.5596611 
H    -5.4222386    4.0207098   -2.0023624 
H    -4.7262932    5.0286708   -0.6906514 
H    -5.3435686   -2.2398482   -2.5772450 
H    -3.7894603   -3.1403430   -2.6907340 
H    -5.4904001   -4.6024866   -1.6465273 
H    -5.8508287   -3.3617171   -0.4056299 
H    -4.7261581   -6.2218465   -0.2834277 
H    -4.4514501   -5.5649327    1.3640089 
H    -3.0665828   -6.1101734    0.3591989 
H    -0.5373033   -2.9725369    2.5329486 
H    -2.1258643   -4.6483748    1.7201351 
H     0.1920263    0.4144109    4.6995886 
H     3.5277911   -1.1128586    7.4760760 
H     3.4327056    0.5113591    6.7342404 
H     2.9171535    0.2750712    8.4282286 
H     0.7669460    1.2961780    7.9882626 
H     1.1300830    1.5948642    6.2683150 
H    -0.3612906    0.7283803    6.7355616 
H    -0.2097997   -1.7322773    7.6068066 
H     0.6415271   -0.8896407    8.9321211 
H     1.3847754   -2.3170475    8.1807732 
H     2.6358685   -4.4528813    7.6012518 
H     2.4156954   -4.9609820    5.8925814 
H     1.1206788   -4.0260112    6.7211141 
H     1.8576607   -2.2992358    1.8306740 
H     5.4327080   -4.6201678    3.8713849 
H     5.1438766   -3.0625523    4.6994447 
H     4.3540762   -4.5477198    5.2790808 
H     1.9702511   -4.8882775    2.3165469 
H     2.2628544   -5.4656522    3.9770031 
H     3.4509984   -5.8190310    2.6921051 
H     4.6827560   -2.2849741    2.2040051 
H     4.9497232   -3.9946874    1.7616858 
H     3.4722846   -3.1740781    1.2291536 
H    -0.1428157    2.7646031    1.3987451 
H    -0.8088992    6.8909481    2.8981865 
H    -1.6665253    6.0108431    4.1812340 
H    -0.0287278    5.4859856    3.6845165 
H    -3.4139792    4.8026665    1.0374427 
H    -2.9258478    6.4857278    1.3990148 
H    -3.6979930    5.4818438    2.6668636 
H    -1.0548781    4.4113785    0.1697982 
H     0.3526635    4.7830942    1.2131016 
H    -0.6872794    6.0980380    0.6204282 
H    -1.8288766    4.2500168    5.8693189 
H    -3.4866169    3.8788911    6.4746938 
H    -3.1110843    5.5171653    5.8513580 
H    -2.1960373   -0.2862253    3.5886939 
H    -2.5683165    0.2981040    6.4220706 
H    -3.0413019    1.9621230    6.8439692 
H    -4.1898127    0.6198695    7.1006226 
H    -4.6842215   -0.2374156    3.4450607 
H    -5.3238196   -0.5378772    5.0946892 
H    -3.6628188   -1.0034675    4.6861554 
H    -6.0296946    1.5501296    5.6092855 
H    -5.0885563    3.0540859    5.4453189 
H    -5.6460037    2.2025021    3.9927983 
