227
Energy =
C     3.7756402   -0.0117972   -0.8095421 
C     3.7925908    1.0473876    0.1265450 
C     3.3964879    0.8247859    1.4828082 
H     3.9609902    2.0728697   -0.2250731 
Pd    1.7155275    0.3155284    0.1256365 
P     0.1120618   -0.1755535    1.7397107 
P     0.2906153    0.1476016   -1.7070127 
H     3.7777064   -1.0319816   -0.3955940 
H     3.5957039   -0.1664782    1.9111214 
C     4.8723891    0.0466384   -4.9599527 
C     4.5434634   -1.1569033   -4.3173201 
C     4.1681792   -1.1485706   -2.9710062 
C     4.1274288    0.0568507   -2.2323012 
C     4.4488728    1.2612565   -2.8981806 
C     4.8098739    1.2555955   -4.2486443 
H     5.1739908    0.0439824   -6.0122195 
H     4.5817930   -2.1034386   -4.8666819 
H     3.9093223   -2.0865899   -2.4705725 
H     4.4237946    2.2099811   -2.3561975 
H     5.0477369    2.1992887   -4.7494206 
C     2.9227083    3.9657868    4.3934098 
C     2.7944548    4.2555464    3.0248133 
C     2.9374629    3.2413028    2.0737831 
C     3.2234732    1.9114793    2.4651554 
C     3.3409778    1.6322641    3.8455948 
C     3.1967453    2.6507900    4.7968329 
H     2.8130908    4.7608736    5.1382418 
H     2.5779093    5.2781976    2.6985932 
H     2.8085937    3.4802243    1.0129594 
H     3.5548962    0.6075645    4.1685741 
H     3.3091240    2.4189083    5.8606042 
C     2.6983659   -4.5387614   -1.4230816 
C     1.2720850   -5.0672206   -1.7375425 
C     0.6431383   -5.5420368   -0.4035529 
C     1.4766581   -6.2720194   -2.6913037 
C     0.4077868   -3.9232078   -2.3375997 
C     0.6181218   -2.6117081   -1.8658697 
C    -0.5864893   -4.0836731   -3.3415407 
O    -0.9221218   -5.3412329   -3.8058120 
C    -1.8705422   -6.0580209   -3.0037855 
C    -1.2446795   -2.9753984   -3.9605314 
C    -2.0371700   -3.1271019   -5.2888071 
C    -1.0177455   -3.5755266   -6.3722702 
C    -2.6465331   -1.7745824   -5.7265644 
C    -3.1918554   -4.1630182   -5.2587696 
C    -1.0086290   -1.7008837   -3.4177840 
C    -0.0859023   -1.5138854   -2.3724816 
C     0.9807623    1.1671462   -3.0663022 
C     1.4645147    2.4385719   -2.7074794 
C     1.8658444    3.3774433   -3.6677403 
C     2.3836446    4.7672410   -3.2173443 
C     2.5392930    4.8371829   -1.6795986 
C     3.7776228    5.0660320   -3.8287419 
C     1.3758345    5.8754945   -3.6166787 
C     1.7716317    2.9909959   -5.0406293 
O     2.1095964    3.9491072   -5.9763054 
C     1.0701452    4.5792457   -6.7350132 
C     1.4356069    1.6613678   -5.4289324 
C     1.0167665    0.7813651   -4.4082979 
C     1.4682408    1.1195225   -6.8840602 
C     2.6203075    1.7225130   -7.7272821 
C     1.6982670   -0.4158414   -6.8803655 
C     0.0958717    1.3666560   -7.5659844 
C    -1.3104461    0.9684036   -1.3479893 
C    -1.6427716    2.2011710   -1.9409751 
C    -2.8094213    2.8857078   -1.5946688 
C    -2.1968361    0.4082026   -0.3844587 
C    -3.3532990    1.1178229   -0.0226449 
C    -3.6943874    2.3697093   -0.6237298 
O    -4.1680454    0.5428400    0.9188398 
C    -5.5250496    0.9983079    0.9120510 
C    -5.5709198    2.5230001    0.9122585 
N    -4.8685940    3.0088042   -0.2674488 
C    -5.3008148    4.2235348   -0.9400670 
C    -2.0521277   -0.9903231    0.1412402 
C    -2.9564918   -1.9367347   -0.3731337 
C    -2.9487236   -3.2991747    0.0511459 
O    -3.8727143   -1.4762921   -1.2819936 
C    -4.5250374   -2.4763823   -2.0663180 
C    -5.0071585   -3.6253181   -1.1909263 
N    -3.8541661   -4.2027564   -0.5078863 
C    -4.0062452   -5.5269024    0.0757654 
C    -1.1082437   -1.3975332    1.1223248 
C    -1.1107891   -2.7318781    1.5631166 
C    -2.0186992   -3.6616349    1.0467481 
C     0.9743079   -1.0151692    3.1259193 
C     0.8618051   -0.5975898    4.4606903 
C     1.5466809   -1.2578411    5.4966350 
C     1.4709323   -0.7193985    6.9476406 
C     0.6922966    0.6159667    7.0048945 
C     0.7497048   -1.7139326    7.8929385 
C     2.9066718   -0.4496239    7.4722511 
C     2.3471868   -2.3841648    5.1449134 
O     2.8845964   -3.1325179    6.1733872 
C     2.2350622   -4.3903804    6.4010444 
C     2.6332778   -2.7136473    3.7880786 
C     1.8877256   -2.0331108    2.8080981 
C     3.7226052   -3.7071634    3.2940350 
C     4.7832780   -4.0916791    4.3550848 
C     3.0506608   -4.9872698    2.7367594 
C     4.5146079   -3.0280240    2.1392557 
C    -0.9174779    1.1285260    2.4855032 
C    -1.9409700    0.7646287    3.3698787 
C    -2.7643791    1.7188182    3.9922324 
C    -3.8878608    1.1965951    4.9309193 
C    -3.3407133    1.0349348    6.3733767 
C    -4.3534228   -0.2115511    4.4621537 
C    -5.1521155    2.0917173    4.9359281 
C    -2.4957523    3.0860726    3.6862497 
O    -3.1997337    4.1037564    4.3040430 
C    -2.8026162    4.4664959    5.6334944 
C    -1.5548398    3.4752047    2.6827315 
C    -0.7510546    2.4697465    2.1224817 
C    -1.4382972    4.9318327    2.1686851 
C    -0.8682672    5.8763034    3.2566386 
C    -2.8301815    5.4275628    1.7000494 
C    -0.4954088    5.0101100    0.9437887 
H     3.3118686   -5.3612554   -1.0175198 
H     3.1895888   -4.1645026   -2.3377834 
H     2.7039199   -3.7342314   -0.6695936 
H     1.2585326   -6.3405468    0.0483820 
H     0.5712294   -4.7048397    0.3101072 
H    -0.3760287   -5.9347437   -0.5511563 
H     0.5763726   -6.8883977   -2.8131888 
H     2.2688459   -6.9196397   -2.2756749 
H     1.7956927   -5.9380595   -3.6927348 
H     1.3438932   -2.4275113   -1.0685047 
H    -2.6400627   -5.3779142   -2.5968451 
H    -1.3715518   -6.5769628   -2.1644090 
H    -2.3382355   -6.8102146   -3.6580289 
H    -1.5215868   -3.6675190   -7.3514595 
H    -0.5791104   -4.5523059   -6.1119334 
H    -0.2024019   -2.8391871   -6.4723476 
H    -3.3748450   -1.3916572   -4.9889276 
H    -1.8756410   -1.0007558   -5.8833140 
H    -3.1765448   -1.9082549   -6.6848446 
H    -2.8136654   -5.1929282   -5.2255455 
H    -3.8687860   -4.0069411   -4.4020789 
H    -3.7932845   -4.0580216   -6.1788603 
H    -1.5365558   -0.8291132   -3.8099043 
H     1.4931825    2.6989060   -1.6451930 
H     3.2396150    4.0696039   -1.3053835 
H     2.9517169    5.8219935   -1.4017657 
H     1.5779686    4.7192769   -1.1514737 
H     4.5228269    4.3319073   -3.4750266 
H     4.1168435    6.0672856   -3.5082697 
H     3.7518129    5.0360422   -4.9271517 
H     0.3681637    5.6452606   -3.2268055 
H     1.6950777    6.8434840   -3.1903943 
H     1.3096180    5.9997726   -4.7057225 
H     0.9796117    4.1190761   -7.7356280 
H     0.0990225    4.5183721   -6.2130417 
H     1.3548227    5.6369880   -6.8610965 
H     0.7093914   -0.2315092   -4.6710612 
H     3.5852379    1.5945880   -7.2089527 
H     2.4975247    2.7925549   -7.9369768 
H     2.6759038    1.1904558   -8.6931185 
H     2.6002456   -0.6869046   -6.3085359 
H     0.8445153   -0.9702835   -6.4575385 
H     1.8242899   -0.7649123   -7.9194343 
H    -0.1566680    2.4351145   -7.6349221 
H    -0.7094087    0.8679955   -6.9981962 
H     0.1014155    0.9513520   -8.5898830 
H    -0.9855128    2.6430044   -2.6930948 
H    -3.0282500    3.8391539   -2.0810859 
H    -6.0423429    0.5952627    0.0201127 
H    -5.9869591    0.5829602    1.8205737 
H    -5.1138279    2.9113035    1.8454501 
H    -6.6192409    2.8639575    0.8765314 
H    -5.3297803    4.0730487   -2.0352111 
H    -4.6427823    5.0889167   -0.7246837 
H    -6.3169462    4.4729121   -0.5985592 
H    -5.3639114   -1.9704318   -2.5684392 
H    -3.8176003   -2.8519430   -2.8264402 
H    -5.4729873   -4.4003220   -1.8243879 
H    -5.7762332   -3.2610127   -0.4756346 
H    -4.7036376   -6.1082695   -0.5476065 
H    -4.4000603   -5.4977568    1.1137285 
H    -3.0380512   -6.0566153    0.0861698 
H    -0.4099843   -3.0548013    2.3374958 
H    -2.0020048   -4.6832859    1.4317655 
H     0.2293719    0.2597192    4.6921362 
H     1.1329266    1.3825053    6.3449525 
H    -0.3678404    0.4911587    6.7266802 
H     0.7190775    1.0033271    8.0378786 
H     0.5822003   -1.2361138    8.8748214 
H    -0.2342426   -2.0056858    7.4844154 
H     1.3474586   -2.6202006    8.0643052 
H     3.5012095   -1.3747664    7.5036430 
H     2.8589424   -0.0275649    8.4920745 
H     3.4277750    0.2781336    6.8260995 
H     2.7203842   -4.8330256    7.2837739 
H     2.3518577   -5.0716718    5.5385905 
H     1.1567251   -4.2490664    6.6002518 
H     2.0347541   -2.2884916    1.7523895 
H     5.6120620   -4.6133968    3.8447077 
H     5.1941608   -3.2009356    4.8572759 
H     4.3975549   -4.7713619    5.1270478 
H     2.3477036   -4.7450988    1.9220579 
H     2.4860678   -5.5215764    3.5201631 
H     3.8135691   -5.6784298    2.3356191 
H     4.9927831   -2.0947560    2.4847692 
H     5.3081991   -3.7081710    1.7849043 
H     3.8802892   -2.7899988    1.2694506 
H    -2.1022529   -0.2975305    3.5653659 
H    -4.1354092    0.6581781    7.0421525 
H    -2.5101017    0.3082815    6.3878737 
H    -2.9640598    1.9819193    6.7901571 
H    -4.5884951   -0.2212415    3.3854100 
H    -5.2547605   -0.5033129    5.0281716 
H    -3.5936260   -0.9897736    4.6466020 
H    -5.5269950    2.2472991    3.9102398 
H    -4.9859999    3.0818758    5.3787886 
H    -5.9458440    1.5879860    5.5150739 
H    -3.3628105    3.8870908    6.3898546 
H    -3.0438666    5.5342786    5.7582805 
H    -1.7192229    4.3114168    5.7821429 
H     0.0085210    2.7138761    1.3769093 
H    -1.5813719    6.0335700    4.0776495 
H     0.0695161    5.4710268    3.6746567 
H    -0.6496338    6.8653973    2.8150266 
H    -3.2160760    4.7587043    0.9133129 
H    -2.7458287    6.4461752    1.2800299 
H    -3.5517848    5.4465987    2.5298609 
H    -0.4817788    6.0467579    0.5645017 
H     0.5412992    4.7392952    1.2037090 
H    -0.8360382    4.3536616    0.1236332 
