227
Energy =
C     3.7068990   -0.1226552   -0.7193459 
C     3.7385892    0.9472178    0.2042816 
C     3.3321635    0.7521174    1.5616430 
H     3.9277221    1.9649852   -0.1591532 
Pd    1.6483826    0.2580352    0.2023823 
P     0.0339547   -0.1836422    1.8171465 
P     0.2261528    0.1173138   -1.6295011 
H     3.6877785   -1.1380365   -0.2940995 
H     3.5118110   -0.2353638    2.0075805 
C     4.8814295   -0.1069105   -4.8499711 
C     4.5301229   -1.3031128   -4.2050285 
C     4.1230530   -1.2828371   -2.8679344 
C     4.0752487   -0.0712838   -2.1391388 
C     4.4151436    1.1260669   -2.8089206 
C     4.8061309    1.1082924   -4.1506989 
H     5.2083041   -0.1193338   -5.8946830 
H     4.5757155   -2.2545013   -4.7457018 
H     3.8476523   -2.2171332   -2.3691514 
H     4.3818127    2.0794808   -2.2759759 
H     5.0593474    2.0472151   -4.6529578 
C     2.8994383    3.9563251    4.4096882 
C     3.1755888    2.6499122    4.8386293 
C     3.3064417    1.6103220    3.9083036 
C     3.1737600    1.8594099    2.5237420 
C     2.8859733    3.1810076    2.1067707 
C     2.7557172    4.2162662    3.0366285 
H     2.7999590    4.7677254    5.1381724 
H     3.2994893    2.4410968    5.9059479 
H     3.5222876    0.5925320    4.2508954 
H     2.7439874    3.3958748    1.0425811 
H     2.5369737    5.2318744    2.6904232 
C    -2.9922166   -4.2307924   -5.1527957 
C    -2.1131513   -2.9693585   -5.3626831 
C    -3.0424502   -1.7352691   -5.4413934 
C    -1.3985683   -3.0860999   -6.7340509 
C    -1.1066228   -2.8306300   -4.1906047 
C    -1.0386308   -1.6488735   -3.4341811 
C    -0.2266384   -3.8927392   -3.8159009 
O    -0.1266362   -4.9741829   -4.6703332 
C     1.0972218   -5.0033399   -5.4194961 
C     0.5190262   -3.8708098   -2.6059871 
C     1.1761695   -5.0934496   -1.9078076 
C     2.7110292   -4.9065290   -1.8158477 
C     0.8720486   -6.4723900   -2.5410282 
C     0.5898768   -5.1505064   -0.4688191 
C     0.6054937   -2.6280339   -1.9462430 
C    -0.1168844   -1.5116574   -2.3780563 
C     0.9420280    1.1494692   -2.9691396 
C     1.4451833    2.4144785   -2.6134967 
C     1.8834517    3.3335489   -3.5780612 
C     2.4377955    4.7124430   -3.1374534 
C     2.5860623    4.7912912   -1.5998447 
C     3.8450346    4.9603876   -3.7417439 
C     1.4701558    5.8491800   -3.5556543 
C     1.7991218    2.9372612   -4.9493625 
O     2.1513248    3.8848793   -5.8910148 
C     1.1091768    4.5112229   -6.6496875 
C     1.4481006    1.6105171   -5.3293258 
C     0.9965429    0.7514826   -4.3066626 
C     1.4901302    1.0438769   -6.7745865 
C     1.7505644   -0.4871639   -6.7406080 
C     0.1109618    1.2543944   -7.4549911 
C     2.6297463    1.6489665   -7.6323842 
C    -1.3818140    0.9240008   -1.2820238 
C    -1.7131981    2.1537185   -1.8818296 
C    -2.8868640    2.8335727   -1.5506079 
C    -2.2742490    0.3604495   -0.3252734 
C    -3.4346093    1.0703162    0.0262869 
C    -3.7776054    2.3168564   -0.5853873 
O    -4.2490598    0.5027231    0.9723164 
C    -5.6076873    0.9524872    0.9609103 
C    -5.6601880    2.4768457    0.9426127 
N    -4.9579766    2.9516421   -0.2416240 
C    -5.3904028    4.1620077   -0.9218384 
C    -2.1306266   -1.0291045    0.2268636 
C    -3.0435218   -1.9859442   -0.2519590 
C    -3.0607769   -3.3284975    0.2370402 
O    -3.9500640   -1.5594777   -1.1887359 
C    -4.6140239   -2.5907723   -1.9241262 
C    -5.1202199   -3.6837853   -0.9925398 
N    -3.9798363   -4.2375756   -0.2745762 
C    -4.1006330   -5.5650691    0.3054189 
C    -1.1935115   -1.4097714    1.2271307 
C    -1.2160537   -2.7246760    1.7238444 
C    -2.1362232   -3.6621031    1.2486718 
C     0.8949324   -1.0184588    3.2049295 
C     0.8128300   -0.5917914    4.5374517 
C     1.5052033   -1.2601120    5.5643851 
C     1.4646664   -0.7075714    7.0122282 
C     0.7542595   -1.6857724    7.9827632 
C     2.9124452   -0.4425632    7.5051961 
C     0.6958080    0.6335188    7.0743994 
C     2.2752631   -2.4069133    5.2074114 
O     2.8396384   -3.1338568    6.2370076 
C     2.1933543   -4.3747018    6.5498031 
C     2.5113038   -2.7654505    3.8468884 
C     1.7714659   -2.0650807    2.8786126 
C     3.5232058   -3.8310187    3.3405290 
C     4.6756084   -4.1284975    4.3321501 
C     2.7693599   -5.1381071    2.9833238 
C     4.2070572   -3.3101976    2.0430634 
C    -0.9770603    1.1443749    2.5440317 
C    -0.8043381    2.4751052    2.1470698 
C    -1.5993226    3.4990984    2.6856479 
C    -1.4745164    4.9419427    2.1364279 
C    -0.5254402    4.9867123    0.9147689 
C    -0.9047728    5.9109033    3.2027624 
C    -2.8630788    5.4298169    1.6500952 
C    -2.5402212    3.1406409    3.7004668 
O    -3.2392446    4.1775577    4.2914519 
C    -2.8446556    4.5741089    5.6120181 
C    -2.8141736    1.7828885    4.0426054 
C    -1.9979698    0.8085827    3.4421397 
C    -3.9349875    1.2909342    5.0003600 
C    -5.1999337    2.1846260    4.9788713 
C    -3.3820217    1.1769372    6.4452007 
C    -4.4023737   -0.1312676    4.5787053 
H    -3.7297123   -4.3141000   -5.9710838 
H    -2.3768546   -5.1429783   -5.1405283 
H    -3.5467930   -4.1741871   -4.2001521 
H    -3.7905105   -1.8951162   -6.2367141 
H    -3.5859946   -1.5576565   -4.4979997 
H    -2.4837123   -0.8161740   -5.6925102 
H    -0.6919681   -2.2534055   -6.8881359 
H    -2.1491016   -3.0463294   -7.5435292 
H    -0.8563091   -4.0369200   -6.8310900 
H    -1.6769268   -0.7973460   -3.6807404 
H     1.9792042   -5.0515969   -4.7546714 
H     1.1874039   -4.1074711   -6.0619428 
H     1.0571900   -5.9074517   -6.0453234 
H     3.1708253   -5.7706862   -1.3044273 
H     2.9745472   -4.0020445   -1.2401859 
H     3.1681614   -4.8187063   -2.8170762 
H    -0.2074193   -6.6152246   -2.7063892 
H     1.3905550   -6.6341176   -3.4969145 
H     1.2225306   -7.2552176   -1.8448284 
H     0.7841015   -4.2303674    0.1057138 
H    -0.5040235   -5.2877184   -0.5038233 
H     1.0329852   -5.9984166    0.0830647 
H     1.2404767   -2.5214626   -1.0591203 
H     1.4626665    2.6855169   -1.5537320 
H     3.2597976    4.0053794   -1.2150150 
H     3.0274524    5.7650035   -1.3274545 
H     1.6183235    4.7080540   -1.0771687 
H     4.5637261    4.2055156   -3.3767533 
H     4.2145530    5.9528254   -3.4273634 
H     3.8251957    4.9225451   -4.8400848 
H     0.4502171    5.6522498   -3.1797670 
H     1.8130329    6.8086092   -3.1283496 
H     1.4247314    5.9709333   -4.6461923 
H     0.9656707    4.0040897   -7.6210468 
H     0.1551530    4.5138758   -6.0933581 
H     1.4282663    5.5489798   -6.8399455 
H     0.6723601   -0.2562782   -4.5662689 
H     0.9190960   -1.0506269   -6.2868014 
H     2.6678206   -0.7243725   -6.1792804 
H     1.8648659   -0.8568574   -7.7741393 
H    -0.6817100    0.7440352   -6.8793121 
H    -0.1632837    2.3176657   -7.5312880 
H     0.1211526    0.8304417   -8.4753653 
H     3.5969113    1.5557594   -7.1104437 
H     2.4837473    2.7097412   -7.8723395 
H     2.6975433    1.0928904   -8.5839031 
H    -1.0478510    2.5962212   -2.6267776 
H    -3.1052530    3.7847850   -2.0415142 
H    -6.1239633    0.5364302    0.0744041 
H    -6.0671723    0.5462970    1.8748642 
H    -5.2069168    2.8787211    1.8718713 
H    -6.7100036    2.8125460    0.9006030 
H    -5.3999332    4.0098407   -2.0169052 
H    -4.7447811    5.0343352   -0.6968645 
H    -6.4147770    4.4012533   -0.5978797 
H    -5.4396030   -2.0972281   -2.4595670 
H    -3.9103656   -3.0231834   -2.6575008 
H    -5.5936645   -4.4833247   -1.5880711 
H    -5.8880896   -3.2707169   -0.3027851 
H    -4.4784911   -5.5474882    1.3496993 
H    -3.1233970   -6.0789694    0.2978378 
H    -4.7986020   -6.1556227   -0.3083616 
H    -0.5217584   -3.0257332    2.5121029 
H    -2.1372948   -4.6652031    1.6805846 
H     0.2014632    0.2794625    4.7738644 
H    -0.2369314   -1.9795002    7.5936885 
H     1.3495596   -2.5919664    8.1607756 
H     0.6033056   -1.1922809    8.9595394 
H     2.8881196   -0.0144060    8.5233367 
H     3.5026135   -1.3706568    7.5289037 
H     3.4236531    0.2789516    6.8444434 
H     1.1272025    1.3924365    6.3998602 
H     0.7463162    1.0286926    8.1034930 
H    -0.3708767    0.5126777    6.8192530 
H     1.0981996   -4.2457025    6.6233781 
H     2.5951639   -4.6959683    7.5227776 
H     2.4145422   -5.1508563    5.7948574 
H     1.8866959   -2.3325948    1.8230819 
H     5.4441597   -4.7262553    3.8111982 
H     5.1466419   -3.1968212    4.6872581 
H     4.3546255   -4.7008287    5.2123963 
H     1.9929794   -4.9462914    2.2229322 
H     2.2748749   -5.5789169    3.8647330 
H     3.4722280   -5.8876703    2.5769246 
H     4.7051732   -2.3400381    2.2163005 
H     4.9740866   -4.0339329    1.7184613 
H     3.5007517   -3.1944250    1.2035193 
H    -0.0467981    2.6957393    1.3922179 
H    -0.5041817    6.0141437    0.5114934 
H     0.5082687    4.7166335    1.1872400 
H    -0.8646550    4.3131376    0.1081810 
H    -1.6196439    6.0908775    4.0173811 
H    -0.6810138    6.8880033    2.7376800 
H     0.0302547    5.5126877    3.6337723 
H    -3.5874453    5.4718012    2.4767377 
H    -3.2479587    4.7417339    0.8793957 
H    -2.7746576    6.4371075    1.2043141 
H    -1.7680493    4.3922063    5.7779551 
H    -3.4303173    4.0375478    6.3806039 
H    -3.0547225    5.6523271    5.6989759 
H    -2.1641710   -0.2474986    3.6644720 
H    -5.0306590    3.1942696    5.3737106 
H    -5.5850957    2.2924815    3.9507100 
H    -5.9873619    1.7068487    5.5878607 
H    -2.5445268    0.4587635    6.4782169 
H    -4.1712120    0.8132608    7.1276098 
H    -3.0127195    2.1391363    6.8323485 
H    -5.3016371   -0.4042947    5.1572248 
H    -4.6425996   -0.1745407    3.5036547 
H    -3.6422974   -0.9037896    4.7846580 
