227
Energy =
C    -4.0409878    0.7481801    0.2258969 
C    -4.0988717   -0.2425747   -0.8024355 
C    -3.7548364   -1.5899470   -0.5462287 
H    -4.2634479    0.0796093   -1.8388258 
Pd   -2.0325654   -0.1712246   -0.0643701 
P    -0.2154731   -1.4536472   -0.7999840 
P    -0.6081808    1.5081659    0.6463979 
H    -4.2552612    0.4256368    1.2555684 
H    -3.8107804   -1.9253064    0.5008430 
C    -4.5344030    4.9646320   -0.5133009 
C    -4.0115788    4.1326482   -1.5172327 
C    -3.8587229    2.7618094   -1.2869501 
C    -4.2268914    2.1868574   -0.0481127 
C    -4.7549837    3.0349652    0.9482009 
C    -4.9088447    4.4069430    0.7173713 
H    -4.6475554    6.0390900   -0.6905115 
H    -3.7118518    4.5564889   -2.4819776 
H    -3.4135494    2.1333100   -2.0647172 
H    -5.0436711    2.6102660    1.9150772 
H    -5.3222598    5.0434853    1.5050484 
C    -3.7519173   -4.8732751   -3.3266988 
C    -3.7504450   -3.5562166   -3.8149908 
C    -3.7410197   -2.4732980   -2.9311304 
C    -3.7339249   -2.6825495   -1.5329489 
C    -3.7234392   -4.0138617   -1.0596901 
C    -3.7319396   -5.0982271   -1.9421662 
H    -3.7683059   -5.7172941   -4.0239903 
H    -3.7603820   -3.3731252   -4.8945843 
H    -3.7390668   -1.4576160   -3.3354183 
H    -3.7120452   -4.1935910    0.0184130 
H    -3.7228225   -6.1188250   -1.5454383 
C     2.3770573   -4.0686355   -5.4509924 
C     2.6080385   -2.5609052   -5.1680973 
C     3.1481573   -1.8555867   -6.4371698 
C     3.7368676   -2.4652111   -4.1023794 
C     1.3058650   -1.9157364   -4.6170734 
C     1.1098371   -1.9290832   -3.2246012 
C     0.2903003   -1.2876957   -5.3965591 
O     0.3443536   -1.2940314   -6.7783835 
C    -0.0581525   -2.4930990   -7.4543667 
C    -0.7772873   -0.5482122   -4.8002713 
C    -1.7306798    0.3498752   -5.6284152 
C    -0.9016715    1.3418109   -6.4841237 
C    -2.6309902    1.2037001   -4.7042026 
C    -2.6611357   -0.4912860   -6.5365948 
C    -0.9175210   -0.6243858   -3.4055702 
C    -0.0155243   -1.3528247   -2.6203642 
C    -0.4239745   -3.2238306   -0.3599838 
C    -1.0525974   -3.5341585    0.8600580 
C    -1.1875832   -4.8585914    1.3062255 
C    -2.0057136   -5.1851473    2.5826164 
C    -1.1315690   -5.8119780    3.6994503 
C    -2.6553371   -3.9088640    3.1661316 
C    -3.1511114   -6.1703620    2.2231548 
C    -0.6146442   -5.8826218    0.4908012 
O    -0.5981212   -7.1645141    1.0053973 
C     0.6756255   -7.5932097    1.5060324 
C    -0.1262015   -5.6210519   -0.8183620 
C    -0.0158908   -4.2676513   -1.1951197 
C     0.2923927   -6.6819995   -1.8742603 
C    -0.2563870   -8.1067478   -1.6143567 
C    -0.2748656   -6.2622964   -3.2600248 
C     1.8397468   -6.7209269   -1.9741998 
C     1.4738816   -1.0270686   -0.2316801 
C     2.2148457   -1.9363271    0.5415990 
C     3.5192128   -1.6533344    0.9545537 
C     2.0681548    0.2159843   -0.6021150 
C     3.3825045    0.4792032   -0.1933503 
C     4.1419409   -0.4364796    0.5945481 
O     3.9466904    1.6846916   -0.5449884 
C     5.3551070    1.5715714   -0.7890601 
C     6.0724022    1.0976405    0.4685890 
N     5.4259653   -0.1066514    0.9850962 
C     6.1655983   -0.9594255    1.9040533 
C     1.3638288    1.2796516   -1.3912751 
C     1.8693539    1.6143004   -2.6612472 
C     1.3077871    2.6673428   -3.4488503 
O     2.9337544    0.8823300   -3.1249808 
C     3.7107000    1.5062602   -4.1532228 
C     2.8047405    2.0408366   -5.2570562 
N     1.8760971    2.9958991   -4.6685326 
C     1.4204996    4.1496762   -5.4278463 
C     0.2443118    2.0045918   -0.8861415 
C    -0.3484496    3.0021153   -1.6855835 
C     0.1778799    3.3397341   -2.9326099 
C    -1.3173144    2.9891881    1.4741681 
C    -2.0557524    2.6960573    2.6336518 
C    -2.4680213    3.6950248    3.5226165 
C    -3.1168492    3.3092648    4.8745511 
C    -2.1857994    3.8049769    6.0141374 
C    -4.5317889    3.9122250    5.0607109 
C    -3.2507090    1.7744356    5.0124326 
C    -2.1644958    5.0470464    3.1724021 
O    -2.6637895    6.0462040    3.9872919 
C    -3.7815044    6.7714680    3.4623175 
C    -1.3205434    5.3700384    2.0751807 
C    -0.9345581    4.3088441    1.2284172 
C    -0.7252699    6.7682390    1.7433032 
C    -1.4170029    7.3264993    0.4729724 
C    -0.8090001    7.8157929    2.8813903 
C     0.7946406    6.6005230    1.4508686 
C     0.6301463    1.1301236    1.9468586 
C     0.4253643    0.0785256    2.8414925 
C     1.1520432   -0.0175891    4.0490432 
C     0.9503663   -1.2990852    4.9017938 
C     1.9611061   -1.5003778    6.0572411 
C     1.1506164   -2.5185682    3.9593602 
C    -0.4887343   -1.3289314    5.4754197 
C     2.0267355    1.0584523    4.3517045 
O     2.5768475    1.1745173    5.6159302 
C     1.6669417    1.6973004    6.5941843 
C     2.3846780    2.0450185    3.3826040 
C     1.6537651    2.0621842    2.1885796 
C     3.5538172    3.0342239    3.6041727 
C     3.8415082    3.8434341    2.3176883 
C     4.8301766    2.2259322    3.9575308 
C     3.2489288    4.0532612    4.7314434 
H     3.3057094   -4.5301616   -5.8322985 
H     2.0910204   -4.5951833   -4.5248827 
H     1.5818937   -4.2414382   -6.1923625 
H     4.1330463   -2.2828534   -6.6949621 
H     2.4920183   -1.9636440   -7.3101984 
H     3.2825913   -0.7755029   -6.2575736 
H     3.8439121   -1.4368152   -3.7196316 
H     4.6916766   -2.7801723   -4.5573978 
H     3.5597580   -3.1291669   -3.2390999 
H     1.8702262   -2.3761224   -2.5816752 
H     0.8125460   -3.1385804   -7.6704616 
H    -0.5141497   -2.1865941   -8.4097409 
H    -0.7947758   -3.0591430   -6.8568367 
H    -1.5766839    2.0261585   -7.0289736 
H    -0.2698902    0.8146297   -7.2134536 
H    -0.2528763    1.9439197   -5.8275220 
H    -3.3286457    0.5853287   -4.1120816 
H    -2.0315268    1.8183064   -4.0106304 
H    -3.2449469    1.8824169   -5.3206411 
H    -3.2214798   -1.2349935   -5.9439399 
H    -3.3937176    0.1682358   -7.0354272 
H    -2.1021867   -1.0191117   -7.3211121 
H    -1.7245615   -0.0907407   -2.8974670 
H    -1.4571040   -2.7122625    1.4573171 
H    -0.2242528   -5.2114300    3.8794956 
H    -1.7072930   -5.8502206    4.6415111 
H    -0.8355254   -6.8408584    3.4520893 
H    -1.9036599   -3.1799032    3.5121133 
H    -3.2756404   -4.1830813    4.0361816 
H    -3.3156337   -3.4087805    2.4347581 
H    -2.7526206   -7.1074742    1.8064373 
H    -3.7338287   -6.4096796    3.1306117 
H    -3.8435353   -5.7234967    1.4883672 
H     1.4150344   -7.7061381    0.6924337 
H     1.0705205   -6.8780177    2.2507315 
H     0.5075511   -8.5706218    1.9827689 
H     0.3890942   -4.0276711   -2.1790275 
H    -1.3397979   -8.0874776   -1.4113154 
H     0.2374725   -8.6196832   -0.7779471 
H    -0.0863008   -8.7171041   -2.5189150 
H     0.0147235   -7.0139030   -4.0148562 
H    -1.3742265   -6.2022179   -3.2292712 
H     0.1032954   -5.2877515   -3.6071872 
H     2.3023106   -7.0293151   -1.0209435 
H     2.2444042   -5.7270171   -2.2360301 
H     2.1554259   -7.4368332   -2.7541751 
H     1.7697764   -2.8948372    0.8225139 
H     4.0582680   -2.3909679    1.5534379 
H     5.5194197    0.8664768   -1.6271071 
H     5.7011782    2.5738019   -1.0836402 
H     6.0729873    1.9037052    1.2282434 
H     7.1268188    0.8718678    0.2197269 
H     6.4309754   -1.9330915    1.4453821 
H     5.5820812   -1.1514808    2.8233530 
H     7.0953889   -0.4468402    2.1930130 
H     4.3065118    2.3306004   -3.7162182 
H     4.3895284    0.7259931   -4.5301827 
H     2.2709495    1.2002972   -5.7460816 
H     3.4136198    2.5509571   -6.0221856 
H     0.4108206    4.0100285   -5.8638314 
H     2.1268958    4.3290702   -6.2529243 
H     1.4009699    5.0491497   -4.7858972 
H    -1.2451245    3.5196789   -1.3361393 
H    -0.3059522    4.1237329   -3.5199523 
H    -2.2800912    1.6481637    2.8503224 
H    -1.1876763    3.3402426    5.9246974 
H    -2.0700246    4.8995420    5.9792305 
H    -2.6092466    3.5280519    6.9967402 
H    -5.0086648    3.4696879    5.9532791 
H    -4.4921746    4.9996100    5.2117007 
H    -5.1774728    3.6945803    4.1912910 
H    -2.2751520    1.2642881    4.9365315 
H    -3.9278414    1.3471554    4.2500712 
H    -3.6757664    1.5364111    6.0025687 
H    -4.6948923    6.1490711    3.4704950 
H    -3.5951087    7.1150603    2.4292209 
H    -3.9287751    7.6404179    4.1213630 
H    -0.2808871    4.5233061    0.3811696 
H    -0.9737279    8.2979081    0.1889648 
H    -1.3066352    6.6329024   -0.3794011 
H    -2.4975424    7.4794175    0.6398269 
H    -0.4448284    7.4067608    3.8373098 
H    -1.8235162    8.2063840    3.0383362 
H    -0.1719486    8.6755057    2.6077709 
H     1.0017007    5.9594347    0.5783431 
H     1.2395297    7.5890598    1.2425834 
H     1.3111373    6.1686275    2.3256213 
H    -0.3274834   -0.6794309    2.5958908 
H     1.8395833   -2.5273740    6.4459333 
H     3.0006660   -1.3823684    5.7119946 
H     1.8003259   -0.8137489    6.9000250 
H     0.4422182   -2.5348113    3.1163004 
H     1.0134669   -3.4528835    4.5309668 
H     2.1701645   -2.5150268    3.5386772 
H    -1.2451926   -1.2421080    4.6765375 
H    -0.6542560   -0.4972459    6.1821219 
H    -0.6692826   -2.2759754    6.0147746 
H     0.7846123    1.0430722    6.7190064 
H     1.3199185    2.7080533    6.3109012 
H     2.2241126    1.7482028    7.5417992 
H     1.8481099    2.8327079    1.4387115 
H     4.0176904    3.1906378    1.4468341 
H     3.0111246    4.5257365    2.0670487 
H     4.7408835    4.4640476    2.4755068 
H     4.7065137    1.6862312    4.9086819 
H     5.6967414    2.9057021    4.0486534 
H     5.0451349    1.4884425    3.1655624 
H     4.0331259    4.8314113    4.7497089 
H     2.2780544    4.5514506    4.5602426 
H     3.2342743    3.5746703    5.7209285 
