227
Energy =
C     3.7775529    0.0084617   -0.7187969 
C     3.8152597    1.0095975    0.2778036 
C     3.3717895    0.7552647    1.6127057 
H     4.0172556    2.0439403   -0.0302398 
Pd    1.7150093    0.3308838    0.1912099 
P     0.0438764   -0.2036195    1.7163520 
P     0.2972039    0.1780720   -1.6356422 
H     3.7050928   -1.0384387   -0.3817133 
H     3.5291911   -0.2513247    2.0221857 
C     5.0271968    0.4064010   -4.8153300 
C     4.1879552   -0.6472197   -4.4219645 
C     3.7880045   -0.7635493   -3.0881044 
C     4.2001807    0.1804103   -2.1194528 
C     5.0363031    1.2423145   -2.5313159 
C     5.4520913    1.3460405   -3.8636866 
H     5.3563214    0.4893893   -5.8561958 
H     3.8438915   -1.3811783   -5.1578947 
H     3.1260941   -1.5825382   -2.7916254 
H     5.3944737    1.9727403   -1.7986981 
H     6.1234944    2.1592728   -4.1586829 
C     2.8827363    3.8499240    4.5711734 
C     2.7990906    4.1679120    3.2053895 
C     2.9469197    3.1686670    2.2392564 
C     3.1930678    1.8252585    2.6128954 
C     3.2642459    1.5177783    3.9903332 
C     3.1158546    2.5217399    4.9563661 
H     2.7697798    4.6331769    5.3279330 
H     2.6129382    5.2008909    2.8932291 
H     2.8518958    3.4309691    1.1797143 
H     3.4457581    0.4826470    4.2998035 
H     3.1919986    2.2675419    6.0181695 
C    -1.8555727   -3.3802254   -6.3269907 
C    -2.3250803   -3.2539850   -4.8553626 
C    -3.0114941   -4.5738400   -4.4121656 
C    -3.3791038   -2.1232160   -4.7947085 
C    -1.1507282   -2.9612891   -3.8906133 
C    -1.0678574   -1.7363985   -3.2108611 
C    -0.1476859   -3.9375789   -3.6052158 
O    -0.0746055   -5.0454870   -4.4289474 
C     1.0089443   -4.9892743   -5.3672828 
C     0.7373544   -3.8116543   -2.5020222 
C     1.5984755   -4.9407950   -1.8740243 
C     1.2114642   -5.0225020   -0.3710965 
C     3.1029229   -4.5877601   -1.9907029 
C     1.3703487   -6.3609488   -2.4441918 
C     0.7901910   -2.5457586   -1.8851420 
C    -0.0436272   -1.4935287   -2.2775801 
C     0.9880749    1.1356644   -3.0362452 
C     1.6167601    2.3537046   -2.7241501 
C     2.0509696    3.2376198   -3.7202619 
C     2.5510718    4.6517505   -3.3318963 
C     2.5676335    4.8365847   -1.7957052 
C     3.9824072    4.9569148   -3.8387847 
C     1.5590585    5.6881697   -3.9249928 
C     1.8874929    2.8222767   -5.0788561 
O     2.3965475    3.6483372   -6.0623462 
C     3.6191398    3.2045159   -6.6639411 
C     1.1728583    1.6435347   -5.4301876 
C     0.7722017    0.8010229   -4.3734300 
C     0.7315431    1.2122452   -6.8577604 
C    -0.7622196    0.7764515   -6.7966866 
C     0.7958114    2.3212506   -7.9368415 
C     1.5785840   -0.0052354   -7.3097717 
C    -1.3026298    1.0164340   -1.3122846 
C    -1.5567728    2.2804429   -1.8782554 
C    -2.7123159    2.9976205   -1.5672213 
C    -2.2567269    0.4580774   -0.4128600 
C    -3.4113083    1.1949221   -0.0962123 
C    -3.6671420    2.4819188   -0.6652605 
O    -4.3007149    0.6203467    0.7782837 
C    -5.6233069    1.1707090    0.7738816 
C    -5.5701545    2.6938323    0.8203151 
N    -4.8296502    3.1603347   -0.3423097 
C    -5.1833203    4.4109016   -0.9951752 
C    -2.1478787   -0.9478301    0.0972811 
C    -3.0750588   -1.8715221   -0.4046612 
C    -3.0674969   -3.2490826   -0.0387854 
O    -4.0286985   -1.4319158   -1.2955066 
C    -5.2864401   -2.0905604   -1.0869202 
C    -5.1444325   -3.5865007   -1.3360063 
N    -3.9877320   -4.1091114   -0.6091629 
C    -3.9060973   -5.5446418   -0.3888858 
C    -1.1693775   -1.3989249    1.0317023 
C    -1.1652484   -2.7533338    1.4115399 
C    -2.0880784   -3.6653651    0.8908262 
C     0.8462732   -1.0601456    3.1281486 
C     0.6822009   -0.6478286    4.4575052 
C     1.3425944   -1.2973061    5.5162686 
C     1.1793877   -0.7668157    6.9635370 
C     0.4176118    0.5804581    6.9806240 
C     0.3655151   -1.7648255    7.8259554 
C     2.5685491   -0.5166811    7.6083591 
C     2.1680040   -2.4157387    5.1969695 
O     2.7229531   -3.1038932    6.2564246 
C     2.1797025   -4.3883298    6.5872718 
C     2.4778521   -2.7632105    3.8465385 
C     1.7710949   -2.0774829    2.8428271 
C     3.5376024   -3.8103384    3.4077235 
C     4.7373334   -3.9029047    4.3842075 
C     2.8627752   -5.1956250    3.2309210 
C     4.1448180   -3.4108337    2.0331281 
C    -1.0005117    1.0987647    2.4443759 
C    -0.7858162    2.4468685    2.1378630 
C    -1.5863698    3.4527007    2.7021443 
C    -1.4082430    4.9229131    2.2478604 
C    -2.7676502    5.4807306    1.7546434 
C    -0.4237939    5.0175632    1.0566067 
C    -0.8459193    5.8058893    3.3900313 
C    -2.5749492    3.0529626    3.6544989 
O    -3.2758353    4.0655381    4.2842084 
C    -2.9172997    4.3712065    5.6389580 
C    -2.8891917    1.6829753    3.9004287 
C    -2.0672450    0.7301548    3.2740709 
C    -4.0543552    1.1563364    4.7847971 
C    -3.5565736    0.9319817    6.2368496 
C    -4.5375681   -0.2234774    4.2534519 
C    -5.2971929    2.0808300    4.7848537 
H    -2.7350421   -3.4471848   -6.9922570 
H    -1.2663333   -2.4978729   -6.6328883 
H    -1.2503981   -4.2843725   -6.4844303 
H    -3.9180389   -4.7514379   -5.0182702 
H    -2.3349689   -5.4331626   -4.5336074 
H    -3.3043492   -4.5136197   -3.3499885 
H    -3.7310336   -1.9430751   -3.7649240 
H    -4.2468800   -2.4056165   -5.4157927 
H    -2.9868269   -1.1712504   -5.1941042 
H    -1.7951515   -0.9450764   -3.4066535 
H     0.8972708   -4.1243437   -6.0480987 
H     0.9690136   -5.9242763   -5.9460347 
H     1.9858622   -4.9127060   -4.8543547 
H     1.8342201   -5.7816651    0.1333467 
H     0.1514032   -5.3061054   -0.2589492 
H     1.3502160   -4.0641055    0.1542347 
H     3.4109040   -4.4881227   -3.0462778 
H     3.3418877   -3.6387073   -1.4795663 
H     3.7184799   -5.3795244   -1.5278363 
H     0.3014292   -6.6249660   -2.4665500 
H     1.7775497   -6.4896984   -3.4574667 
H     1.8926727   -7.0819988   -1.7901914 
H     1.4972134   -2.3664778   -1.0668413 
H     1.7373235    2.6152711   -1.6689059 
H     3.2752380    4.1406741   -1.3091808 
H     2.8962110    5.8627277   -1.5584033 
H     1.5710939    4.6946266   -1.3432304 
H     4.6862471    4.1626819   -3.5371323 
H     4.3333357    5.9075538   -3.3994757 
H     4.0121002    5.0669058   -4.9312419 
H     0.5409826    5.5203565   -3.5299346 
H     1.8706587    6.7119011   -3.6491921 
H     1.5277501    5.6159686   -5.0235063 
H     3.8357312    3.9088847   -7.4812329 
H     4.4460756    3.2158022   -5.9325165 
H     3.5235819    2.1820620   -7.0709199 
H     0.2572197   -0.1337671   -4.6041104 
H    -1.3971947    1.6023862   -6.4314949 
H    -0.9271105   -0.0950081   -6.1430301 
H    -1.1059866    0.4965912   -7.8077134 
H     0.3092759    3.2483903   -7.5943936 
H     1.8206519    2.5659924   -8.2476291 
H     0.2628659    1.9618937   -8.8349497 
H     1.4725881   -0.8473484   -6.6023139 
H     2.6509574    0.2499970   -7.3693997 
H     1.2523921   -0.3506636   -8.3072762 
H    -0.8447018    2.7206243   -2.5799419 
H    -2.8679992    3.9768628   -2.0256260 
H    -6.1589564    0.8377405   -0.1359651 
H    -6.1224782    0.7556632    1.6629437 
H    -5.0956938    3.0263478    1.7662868 
H    -6.5939762    3.1019341    0.7879150 
H    -5.1490161    4.2959776   -2.0938500 
H    -4.5161146    5.2491328   -0.7109628 
H    -6.2118123    4.6787099   -0.7082413 
H    -5.6268966   -1.8903736   -0.0524619 
H    -5.9972324   -1.6407724   -1.7966213 
H    -5.0419507   -3.7807154   -2.4209883 
H    -6.0641679   -4.0984036   -0.9906921 
H    -4.5701110   -6.0519016   -1.1059231 
H    -4.2111944   -5.8350691    0.6374482 
H    -2.8772611   -5.9059606   -0.5655050 
H    -0.4401093   -3.1101752    2.1477276 
H    -2.0527745   -4.7049344    1.2251473 
H     0.0325037    0.2014304    4.6686216 
H     0.9163399    1.3454396    6.3613443 
H    -0.6223926    0.4779460    6.6288452 
H     0.3780719    0.9561405    8.0175099 
H     0.1695654   -1.3251721    8.8203971 
H    -0.6074665   -1.9886391    7.3533138 
H     0.9042904   -2.7096294    7.9823889 
H     3.1491337   -1.4459042    7.6939299 
H     2.4372492   -0.0859669    8.6170762 
H     3.1524811    0.2004219    7.0056013 
H     1.1228852   -4.4680977    6.2766164 
H     2.2511903   -4.4954796    7.6818035 
H     2.7642599   -5.1993496    6.1156546 
H     1.9586578   -2.3262179    1.7940524 
H     5.5161479   -4.5440032    3.9352691 
H     5.1749828   -2.9050066    4.5601856 
H     4.4732763   -4.3263678    5.3613949 
H     2.0409867   -5.1325970    2.4974902 
H     2.4417857   -5.5757283    4.1742272 
H     3.5972391   -5.9352323    2.8640898 
H     4.5709698   -2.3923363    2.0629917 
H     4.9590061   -4.1111239    1.7804194 
H     3.4151475   -3.4612826    1.2081865 
H     0.0112893    2.6978103    1.4348178 
H    -2.6374713    6.5105239    1.3758696 
H    -3.1478385    4.8541577    0.9312053 
H    -3.5156881    5.4928637    2.5607856 
H     0.5968828    4.7079348    1.3361062 
H    -0.3701227    6.0662839    0.7163593 
H    -0.7565298    4.4008568    0.2031897 
H     0.0665184    5.3565286    3.8187768 
H    -1.5793913    5.9509002    4.1953441 
H    -0.5860285    6.8050198    2.9960131 
H    -1.8478346    4.1670058    5.8238301 
H    -3.5299201    3.7919866    6.3538381 
H    -3.1204550    5.4436391    5.7894774 
H    -2.2598161   -0.3338692    3.4265801 
H    -2.7475089    0.1814113    6.2519624 
H    -3.1673129    1.8537250    6.6963979 
H    -4.3816945    0.5561133    6.8682934 
H    -4.7360244   -0.1914351    3.1699042 
H    -5.4637925   -0.5114536    4.7798977 
H    -3.8029478   -1.0259173    4.4360404 
H    -6.1167092    1.5795802    5.3291597 
H    -5.1194881    3.0536179    5.2603065 
H    -5.6426452    2.2750919    3.7556445 
