227
Energy =
C     3.7387570    0.0473104   -0.7457044 
C     3.7385045    1.0955320    0.2029133 
C     3.2913135    0.8799279    1.5426321 
H     3.9167876    2.1218318   -0.1442453 
Pd    1.6631327    0.3564104    0.1159416 
P     0.0197552   -0.1453728    1.6866148 
P     0.3019324    0.1498333   -1.7606380 
H     3.6941053   -0.9825123   -0.3576142 
H     3.4743371   -0.1070405    1.9876139 
C     5.0832138    0.2376961   -4.8224800 
C     5.4090081    1.2734244   -3.9337083 
C     4.9555239    1.2395575   -2.6109086 
C     4.1807533    0.1545929   -2.1447262 
C     3.8628865   -0.8837340   -3.0503357 
C     4.3025639   -0.8401576   -4.3761199 
H     5.4451712    0.2646038   -5.8553948 
H     6.0353062    2.1069618   -4.2675297 
H     5.2388487    2.0442370   -1.9252152 
H     3.2486756   -1.7222144   -2.7071564 
H     4.0390939   -1.6500827   -5.0638638 
C     2.7712975    4.0808843    4.3781597 
C     2.5806108    4.3222202    3.0072813 
C     2.7333931    3.2854686    2.0825600 
C     3.0893215    1.9818520    2.5032282 
C     3.2612799    1.7490152    3.8857928 
C     3.1120500    2.7910662    4.8108817 
H     2.6563014    4.8940619    5.1023768 
H     2.3078294    5.3239530    2.6591820 
H     2.5541935    3.4824607    1.0202824 
H     3.5260767    0.7434747    4.2302133 
H     3.2715211    2.5973202    5.8763582 
C     0.6475243   -5.5720404   -0.4431883 
C     1.3080082   -5.0506987   -1.7448652 
C     1.5759011   -6.2234900   -2.7223613 
C     2.7065534   -4.4903869   -1.3665696 
C     0.4303797   -3.9205392   -2.3496742 
C     0.6319551   -2.6049956   -1.8902275 
C    -0.5708592   -4.0993093   -3.3450040 
O    -0.8780264   -5.3625809   -3.8101253 
C    -1.8081622   -6.1127016   -3.0149296 
C    -1.2610295   -3.0034951   -3.9514277 
C    -2.0799067   -3.1621771   -5.2632281 
C    -3.1128499   -4.3207421   -5.2776768 
C    -1.0401344   -3.4306241   -6.3868229 
C    -2.8521499   -1.8653780   -5.6053970 
C    -1.0241816   -1.7210512   -3.4265049 
C    -0.0817686   -1.5165415   -2.4029380 
C     1.0379723    1.1469812   -3.1143959 
C     1.5712064    2.3930453   -2.7341788 
C     2.0634760    3.3078654   -3.6727711 
C     2.4748383    4.7323379   -3.2252710 
C     1.5220306    5.7497981   -3.9082108 
C     2.3282545    4.9024551   -1.6951117 
C     3.9438662    5.0750613   -3.5792042 
C     2.0594194    2.9030611   -5.0434901 
O     2.6140140    3.7728298   -5.9614801 
C     3.8946406    3.4038212   -6.4869444 
C     1.4452787    1.6946028   -5.4749045 
C     0.9821938    0.8163834   -4.4700900 
C     1.1725031    1.2807443   -6.9504508 
C     1.2339946    2.4353858   -7.9823130 
C     2.1487353    0.1519080   -7.3681969 
C    -0.2752546    0.7215595   -7.0416115 
C    -1.3005340    0.9779132   -1.4376636 
C    -1.5803339    2.2345067   -2.0034003 
C    -2.7484766    2.9284314   -1.6828073 
C    -2.2216889    0.4107295   -0.5108082 
C    -3.3790163    1.1348581   -0.1703826 
C    -3.6739627    2.4063671   -0.7564651 
O    -4.2417215    0.5484922    0.7161771 
C    -5.2003980    1.4297641    1.3132309 
C    -5.8745138    2.2926015    0.2578844 
N    -4.8496205    3.0699546   -0.4246812 
C    -5.2617834    4.2480370   -1.1730024 
C    -2.0883557   -0.9870189    0.0255536 
C    -2.9725639   -1.9470750   -0.5018437 
C    -2.9811122   -3.2991525   -0.0428032 
O    -3.8455144   -1.5075360   -1.4582762 
C    -4.5609554   -2.5126445   -2.1790223 
C    -5.0503070   -3.6150734   -1.2509213 
N    -3.8901905   -4.2076025   -0.5921184 
C    -4.0631418   -5.5127185    0.0286795 
C    -1.1694797   -1.3803683    1.0370443 
C    -1.1753302   -2.7083983    1.4953957 
C    -2.0717033   -3.6467654    0.9751627 
C     0.8820871   -0.9771682    3.0812554 
C     0.7916565   -0.5258190    4.4072710 
C     1.4791083   -1.1688849    5.4523586 
C     1.4167086   -0.6002809    6.8925211 
C     2.8568756   -0.3521849    7.4155650 
C     0.6690192    0.7535732    6.9240122 
C     0.6718894   -1.5622055    7.8530526 
C     2.2637376   -2.3110304    5.1193765 
O     2.7962648   -3.0479775    6.1585880 
C     2.1324944   -4.2945053    6.4066772 
C     2.5382500   -2.6693284    3.7676543 
C     1.7873803   -2.0077247    2.7785363 
C     3.6251584   -3.6719722    3.2875367 
C     4.6795953   -4.0550756    4.3551103 
C     2.9505950   -4.9533566    2.7372888 
C     4.4252862   -3.0003437    2.1339600 
C    -1.0469004    1.1163834    2.4553665 
C    -2.0288652    0.7002542    3.3650002 
C    -2.8385902    1.6160024    4.0597848 
C    -3.9074909    1.0412974    5.0322761 
C    -5.1618899    1.9402289    5.1754303 
C    -3.2768164    0.7898114    6.4270586 
C    -4.4051278   -0.3381775    4.5120657 
C    -2.6067357    2.9986794    3.7906723 
O    -3.2815308    3.9789793    4.4933084 
C    -2.7792025    4.2940747    5.7993571 
C    -1.7341922    3.4390222    2.7477964 
C    -0.9319689    2.4702932    2.1219571 
C    -1.6962047    4.9090015    2.2603628 
C    -1.1092678    5.8580417    3.3357793 
C    -3.1320393    5.3570080    1.8788128 
C    -0.8191428    5.0453004    0.9922152 
H     1.2731223   -6.3582329    0.0162840 
H     0.5242822   -4.7503577    0.2817624 
H    -0.3519987   -5.9947462   -0.6322242 
H     2.3643060   -6.8680704   -2.2950832 
H     0.6930876   -6.8507040   -2.9015659 
H     1.9285225   -5.8520858   -3.6993983 
H     3.2156369   -4.0559481   -2.2445042 
H     3.3351494   -5.3099684   -0.9788197 
H     2.6621541   -3.7234453   -0.5760599 
H     1.3574080   -2.4094205   -1.0958129 
H    -2.5282607   -5.4430630   -2.5115637 
H    -1.2794983   -6.7163592   -2.2540998 
H    -2.3424444   -6.7928211   -3.6968169 
H    -3.7721962   -4.2014307   -6.1551775 
H    -3.7539508   -4.3194531   -4.3797326 
H    -2.6246328   -5.3005515   -5.3569336 
H    -0.3117386   -2.6036989   -6.4552919 
H    -0.4904218   -4.3653451   -6.1862791 
H    -1.5480272   -3.5257889   -7.3637153 
H    -3.5817663   -1.6002334   -4.8204472 
H    -2.1855838   -1.0018710   -5.7546571 
H    -3.4069811   -2.0129768   -6.5473520 
H    -1.5723514   -0.8592359   -3.8128706 
H     1.5717743    2.6489591   -1.6703504 
H     0.4743686    5.5539283   -3.6172384 
H     1.7791878    6.7780138   -3.5955088 
H     1.6012356    5.6871563   -5.0046580 
H     1.2978591    4.7160700   -1.3463715 
H     2.5901085    5.9379233   -1.4184984 
H     3.0112377    4.2307016   -1.1445769 
H     4.0801587    5.2101651   -4.6605810 
H     4.2316752    6.0211418   -3.0872626 
H     4.6308378    4.2860539   -3.2266838 
H     4.1076748    4.1065453   -7.3066075 
H     4.6772014    3.4908348   -5.7132038 
H     3.8945914    2.3697660   -6.8729969 
H     0.5475279   -0.1425722   -4.7603635 
H     2.2565744    2.7682977   -8.2044405 
H     0.6519490    3.3091343   -7.6480089 
H     0.7999642    2.0733999   -8.9310085 
H     3.1977994    0.4920015   -7.3413188 
H     2.0610674   -0.7171902   -6.6924343 
H     1.9250174   -0.1861098   -8.3959343 
H    -1.0111110    1.4620357   -6.6826344 
H    -0.4051446   -0.2030538   -6.4590083 
H    -0.5123445    0.4775861   -8.0915396 
H    -0.8916619    2.6778686   -2.7262054 
H    -2.9453732    3.8843134   -2.1726228 
H    -5.9292192    0.7833851    1.8242474 
H    -4.6903647    2.0670404    2.0593124 
H    -6.5837149    2.9827711    0.7464284 
H    -6.4483249    1.6515306   -0.4461080 
H    -5.4731849    4.0231868   -2.2393770 
H    -4.4833966    5.0291832   -1.1264182 
H    -6.1742533    4.6548925   -0.7108303 
H    -5.3985959   -1.9943488   -2.6708937 
H    -3.8960997   -2.9427874   -2.9479288 
H    -5.5624081   -4.3924824   -1.8435767 
H    -5.7791898   -3.2039390   -0.5193115 
H    -4.7672783   -6.1011198   -0.5803837 
H    -4.4587022   -5.4485792    1.0646512 
H    -3.1025324   -6.0552420    0.0560883 
H    -0.4908070   -3.0180570    2.2892438 
H    -2.0635157   -4.6622577    1.3764783 
H     0.1712786    0.3430097    4.6270802 
H     3.4327418   -1.2882422    7.4636684 
H     3.3937245    0.3549381    6.7595044 
H     2.8154485    0.0874434    8.4282046 
H     0.7081612    1.1611628    7.9488807 
H     1.1259056    1.4949095    6.2473190 
H    -0.3937035    0.6486892    6.6511185 
H    -0.3204688   -1.8330720    7.4503440 
H     0.5195265   -1.0672854    8.8289115 
H     1.2454634   -2.4821756    8.0346051 
H     1.0560935   -4.1372865    6.6047635 
H     2.6136594   -4.7289262    7.2957373 
H     2.2400075   -4.9904078    5.5546216 
H     1.9254688   -2.2877490    1.7278064 
H     5.5063768   -4.5859147    3.8508713 
H     5.0949040   -3.1637434    4.8524343 
H     4.2868835   -4.7271395    5.1303698 
H     2.2494888   -4.7155560    1.9200575 
H     2.3835604   -5.4800510    3.5241783 
H     3.7118372   -5.6496551    2.3420475 
H     4.9118386   -2.0720674    2.4814723 
H     5.2126267   -3.6875593    1.7791787 
H     3.7940471   -2.7539328    1.2646101 
H    -2.1558557   -0.3709999    3.5365575 
H    -5.9349430    1.3869686    5.7371042 
H    -4.9642989    2.8777853    5.7108898 
H    -5.5804119    2.2043014    4.1898344 
H    -2.4604233    0.0508572    6.3513457 
H    -4.0367658    0.3879238    7.1209648 
H    -2.8600901    1.7073946    6.8713940 
H    -3.6324535   -1.1211596    4.5919550 
H    -4.7243599   -0.2911430    3.4584459 
H    -5.2616107   -0.6688063    5.1243215 
H    -3.2095219    3.6255248    6.5671252 
H    -3.0896755    5.3282023    6.0164357 
H    -1.6772099    4.2227341    5.8299889 
H    -0.2120800    2.7556781    1.3520914 
H    -1.7915458    5.9824425    4.1881151 
H    -0.1410917    5.4800358    3.7075374 
H    -0.9426371    6.8587339    2.8978341 
H    -3.5557423    4.6759572    1.1208712 
H    -3.1067360    6.3786141    1.4580503 
H    -3.7957238    5.3556336    2.7563798 
H    -0.8636603    6.0885752    0.6342663 
H     0.2397855    4.8104056    1.1935781 
H    -1.1736294    4.3917237    0.1761576 
