227
Energy =
C     3.6780440   -0.1794165   -0.7763604 
C     3.7613310    0.8784201    0.1598591 
C     3.3670146    0.6816218    1.5204089 
H     3.9584405    1.8963107   -0.2006199 
Pd    1.6594190    0.2351680    0.1686604 
P     0.0341255   -0.1754318    1.7817907 
P     0.2475717    0.1206943   -1.6723287 
H     3.6318154   -1.2012180   -0.3676965 
H     3.5338634   -0.3113147    1.9587168 
C     4.6336785   -0.0911097   -4.9661202 
C     4.9173769    1.0260784   -4.1658686 
C     4.5988130    1.0236058   -2.8046439 
C     4.0058693   -0.1104811   -2.2077230 
C     3.7315859   -1.2320014   -3.0252846 
C     4.0318920   -1.2204931   -4.3900545 
H     4.8898112   -0.0852674   -6.0303779 
H     5.4011361    1.9043060   -4.6027122 
H     4.8368586    1.9022424   -2.1978335 
H     3.2652032   -2.1157468   -2.5816925 
H     3.8015983   -2.0972293   -5.0048909 
C     2.9910769    3.8801247    4.3827684 
C     3.2964531    2.5772490    4.8022626 
C     3.4063362    1.5378014    3.8688055 
C     3.2288004    1.7860234    2.4893607 
C     2.9105875    3.1037417    2.0821494 
C     2.7966157    4.1377227    3.0154567 
H     2.9058733    4.6902192    5.1145175 
H     3.4572714    2.3706776    5.8649589 
H     3.6397060    0.5216208    4.2054252 
H     2.7279557    3.3146403    1.0234557 
H     2.5508063    5.1498156    2.6770782 
C     0.9463372   -6.4728039   -2.4637596 
C     1.2252507   -5.0818563   -1.8454258 
C     2.7562609   -4.8741686   -1.7342548 
C     0.6191986   -5.1253208   -0.4146946 
C     0.5628596   -3.8787243   -2.5715665 
C     0.6220622   -2.6247425   -1.9321818 
C    -0.1583294   -3.9264866   -3.7953517 
O    -0.0188032   -5.0127073   -4.6380158 
C     1.2235752   -5.0309030   -5.3549455 
C    -1.0530640   -2.8856390   -4.1933663 
C    -2.0341355   -3.0571515   -5.3813163 
C    -3.0350839   -1.8795908   -5.4547820 
C    -2.8548014   -4.3637555   -5.2152440 
C    -1.2708711   -3.1020179   -6.7313229 
C    -1.0049487   -1.6865164   -3.4624350 
C    -0.0918247   -1.5176161   -2.4030477 
C     0.9687538    1.1698284   -3.0012249 
C     1.5143139    2.4075796   -2.6076088 
C     1.9880787    3.3402444   -3.5412203 
C     2.4650187    4.7374385   -3.0738897 
C     3.9121423    5.0605943   -3.5252156 
C     1.4908763    5.8013365   -3.6467058 
C     2.4408515    4.8510656   -1.5331985 
C     1.9136912    2.9822058   -4.9232278 
O     2.4275149    3.8747545   -5.8438098 
C     3.6535554    3.4968134   -6.4807312 
C     1.2735770    1.7913504   -5.3605173 
C     0.8715651    0.8774235   -4.3626857 
C     0.8745632    1.4295601   -6.8213266 
C    -0.6229230    1.0068819   -6.8066011 
C     0.9633967    2.5826431   -7.8510407 
C     1.7216934    0.2308140   -7.3164554 
C    -1.3629149    0.9181805   -1.3263918 
C    -1.6880920    2.1579819   -1.9084343 
C    -2.8635345    2.8329825   -1.5744741 
C    -2.2601204    0.3382845   -0.3835227 
C    -3.4263783    1.0404820   -0.0347798 
C    -3.7629822    2.2985655   -0.6269296 
O    -4.2515091    0.4575051    0.8929045 
C    -5.6109355    0.9046452    0.8687130 
C    -5.6654678    2.4288415    0.8808267 
N    -4.9452850    2.9288535   -0.2820258 
C    -5.3705528    4.1508822   -0.9462777 
C    -2.1092366   -1.0494721    0.1744101 
C    -3.0103702   -2.0186478   -0.3024235 
C    -3.0369780   -3.3503139    0.2163493 
O    -3.8993080   -1.6147149   -1.2656720 
C    -4.5525630   -2.6643074   -1.9854791 
C    -5.0781599   -3.7308703   -1.0345637 
N    -3.9501365   -4.2700764   -0.2870930 
C    -4.0836586   -5.5821087    0.3244271 
C    -1.1845032   -1.4121811    1.1937427 
C    -1.2146365   -2.7163799    1.7167178 
C    -2.1295241   -3.6626764    1.2495056 
C     0.8806653   -0.9854413    3.1941334 
C     1.7483822   -2.0504265    2.9065805 
C     2.4635233   -2.7363638    3.9037064 
C     3.4687995   -3.8272090    3.4397897 
C     4.5878905   -4.1348917    4.4656723 
C     2.7000881   -5.1243679    3.0788753 
C     4.1977797   -3.3339539    2.1562399 
C     2.2094657   -2.3433255    5.2513005 
O     2.7353575   -3.0622135    6.3067479 
C     2.0531608   -4.2816404    6.6266577 
C     1.4571107   -1.1734638    5.5675547 
C     0.7912613   -0.5210794    4.5137188 
C     1.3973836   -0.5863482    7.0009346 
C     2.8373893   -0.3688795    7.5374494 
C     0.6837688    0.7869046    7.0099894 
C     0.6162450   -1.5154622    7.9650875 
C    -0.9947936    1.1447460    2.4980132 
C    -0.8239679    2.4825323    2.1261434 
C    -1.6201396    3.4942988    2.6865829 
C    -1.4997169    4.9480515    2.1668382 
C    -2.8914317    5.4389541    1.6920601 
C    -0.5520967    5.0195558    0.9460344 
C    -0.9314762    5.8986427    3.2504080 
C    -2.5594769    3.1146643    3.6950838 
O    -3.2522691    4.1390468    4.3142975 
C    -2.8465299    4.4965241    5.6426103 
C    -2.8352382    1.7501056    4.0063588 
C    -2.0175245    0.7897519    3.3867097 
C    -3.9578744    1.2354488    4.9497564 
C    -5.2149163    2.1403617    4.9617258 
C    -3.4029427    1.0654372    6.3884747 
C    -4.4374167   -0.1674021    4.4790133 
H     1.2939035   -7.2420222   -1.7512070 
H    -0.1289190   -6.6295533   -2.6438823 
H     1.4813568   -6.6424222   -3.4091125 
H     3.2186096   -5.7229529   -1.1998458 
H     3.2287082   -4.7996363   -2.7293687 
H     3.0022419   -3.9559346   -1.1723912 
H     0.7952039   -4.1952670    0.1495614 
H     1.0639653   -5.9603501    0.1550291 
H    -0.4724510   -5.2752602   -0.4627795 
H     1.2324555   -2.4982790   -1.0303647 
H     2.0895082   -5.0624036   -4.6683035 
H     1.3171180   -4.1391409   -6.0031183 
H     1.2117180   -5.9400479   -5.9745830 
H    -3.7668504   -2.0782299   -6.2565129 
H    -2.5395609   -0.9240082   -5.6933359 
H    -3.5930588   -1.7472841   -4.5132070 
H    -2.2011336   -5.2481384   -5.2015777 
H    -3.4354881   -4.3468107   -4.2759932 
H    -3.5680238   -4.4648843   -6.0526939 
H    -0.5922132   -2.2373884   -6.8339193 
H    -0.6859141   -4.0270520   -6.8343193 
H    -1.9921867   -3.0683931   -7.5673799 
H    -1.6590058   -0.8523475   -3.7274603 
H     1.5472958    2.6392491   -1.5388589 
H     3.9691590    5.2456039   -4.6061375 
H     4.2633553    5.9735344   -3.0126176 
H     4.6042600    4.2402762   -3.2643821 
H     1.4849763    5.7752559   -4.7476358 
H     1.7982377    6.8116629   -3.3211466 
H     0.4637038    5.6203315   -3.2825783 
H     3.1442730    4.1399171   -1.0638267 
H     2.7522778    5.8673407   -1.2376144 
H     1.4361626    4.6778255   -1.1143657 
H     4.5124427    3.6669903   -5.8069057 
H     3.6447089    2.4350722   -6.7832833 
H     3.7585553    4.1379610   -7.3690342 
H     0.4329682   -0.0757090   -4.6654157 
H    -1.2582920    1.8271200   -6.4294028 
H    -0.8033226    0.1211222   -6.1792450 
H    -0.9499223    0.7572430   -7.8311125 
H     0.4754867    3.4981969   -7.4812710 
H     1.9945660    2.8307049   -8.1369180 
H     0.4449164    2.2618513   -8.7718615 
H     1.6395857   -0.6309715   -6.6306832 
H     2.7894905    0.4988872   -7.3891712 
H     1.3811902   -0.0900397   -8.3172753 
H    -1.0161891    2.6120080   -2.6408290 
H    -3.0770073    3.7929816   -2.0500857 
H    -6.1121930    0.5059114   -0.0342588 
H    -6.0842051    0.4792075    1.7667931 
H    -5.2273633    2.8112018    1.8255215 
H    -6.7148685    2.7645413    0.8293992 
H    -5.3750327    4.0158038   -2.0436606 
H    -4.7230416    5.0171258   -0.7046527 
H    -6.3955011    4.3888607   -0.6233911 
H    -5.3667979   -2.1831807   -2.5487350 
H    -3.8368021   -3.1190335   -2.6937336 
H    -5.5463320   -4.5432958   -1.6166178 
H    -5.8540555   -3.2971583   -0.3667574 
H    -4.4752344   -5.5369318    1.3628284 
H    -3.1084448   -6.0996060    0.3428809 
H    -4.7757446   -6.1853821   -0.2836060 
H    -0.5314786   -3.0013926    2.5204397 
H    -2.1388056   -4.6559099    1.7034868 
H     1.8744883   -2.3477025    1.8601699 
H     5.0666326   -3.2086125    4.8244382 
H     4.2323635   -4.6924227    5.3422449 
H     5.3588364   -4.7523553    3.9718636 
H     3.3987983   -5.8924468    2.7009409 
H     2.1745010   -5.5438189    3.9528577 
H     1.9475922   -4.9282204    2.2960740 
H     3.5159225   -3.2039266    1.2988303 
H     4.9529809   -4.0798776    1.8548696 
H     4.7174540   -2.3765359    2.3367208 
H     2.2632304   -5.0731992    5.8845093 
H     0.9607797   -4.1233754    6.6838589 
H     2.4337744   -4.6000456    7.6090246 
H     0.1903392    0.3648557    4.7200010 
H     2.7963528    0.0906235    8.5412514 
H     3.3863949   -1.3192771    7.6083002 
H     3.4015064    0.3100068    6.8748316 
H    -0.3798400    0.7060793    6.7284043 
H     1.1663596    1.5091906    6.3299127 
H     0.7237598    1.2044406    8.0307533 
H     1.1613884   -2.4480458    8.1673537 
H     0.4660677   -1.0033208    8.9323647 
H    -0.3782221   -1.7653092    7.5541647 
H    -0.0658037    2.7195963    1.3770602 
H    -2.8081859    6.4534289    1.2619607 
H    -3.2765554    4.7615400    0.9116915 
H    -3.6134566    5.4649125    2.5214244 
H     0.4830348    4.7476183    1.2120073 
H    -0.5339285    6.0543201    0.5620980 
H    -0.8897653    4.3604497    0.1269163 
H     0.0076783    5.4970881    3.6698000 
H    -1.6440934    6.0588572    4.0711029 
H    -0.7144158    6.8857816    2.8037699 
H    -1.7631523    4.3354815    5.7853747 
H    -3.4057530    3.9183212    6.4006192 
H    -3.0815249    5.5652485    5.7710079 
H    -2.1807166   -0.2707469    3.5898131 
H    -5.0385511    3.1304003    5.4007642 
H    -5.5950435    2.2960170    3.9376036 
H    -6.0087984    1.6440363    5.5470231 
H    -2.5770792    0.3329781    6.3955160 
H    -4.1960455    0.6920952    7.0610729 
H    -3.0175444    2.0087773    6.8057620 
H    -5.3388824   -0.4531699    5.0478924 
H    -4.6769933   -0.1710168    3.4032712 
H    -3.6837422   -0.9530094    4.6568185 
