227
Energy =
C     3.7544905   -0.0168697   -0.7644102 
C     3.7925670    1.0086287    0.2066447 
C     3.3464633    0.7927118    1.5477886 
H     3.9985702    2.0336515   -0.1290075 
Pd    1.6896509    0.3339029    0.1398323 
P     0.0270998   -0.1945831    1.6757284 
P     0.2703455    0.1519051   -1.6832045 
H     3.6742588   -1.0550455   -0.4031598 
H     3.5039225   -0.2009061    1.9876347 
C     5.0383952    0.2944478   -4.8579062 
C     4.1726867   -0.7347660   -4.4568865 
C     3.7577155   -0.8232371   -3.1255202 
C     4.1861854    0.1228381   -2.1661284 
C     5.0514791    1.1581666   -2.5852247 
C     5.4755350    1.2387271   -3.9164240 
H     5.3785493    0.3533833   -5.8969930 
H     3.8179288   -1.4713276   -5.1854717 
H     3.0730817   -1.6213820   -2.8244575 
H     5.4268085    1.8841240   -1.8577333 
H     6.1632129    2.0359113   -4.2176324 
C     2.8570927    3.9760771    4.4112245 
C     2.7751769    4.2531370    3.0364256 
C     2.9227408    3.2252272    2.1006834 
C     3.1676223    1.8931458    2.5144856 
C     3.2374780    1.6275451    3.9007239 
C     3.0886059    2.6598203    4.8362620 
H     2.7440110    4.7818329    5.1439320 
H     2.5896639    5.2765827    2.6939757 
H     2.8297337    3.4563894    1.0332721 
H     3.4185006    0.6020545    4.2408045 
H     3.1635636    2.4374059    5.9053078 
C     1.3589442   -6.3971608   -2.3906788 
C     1.5862803   -4.9658786   -1.8486848 
C     3.0885169   -4.6104345   -1.9853836 
C     1.2131208   -5.0215967   -0.3412863 
C     0.7170947   -3.8506267   -2.4905801 
C     0.7719796   -2.5733716   -1.8977357 
C    -0.1770243   -3.9994232   -3.5834309 
O    -0.1155693   -5.1280591   -4.3794484 
C     0.9505056   -5.0917297   -5.3386495 
C    -1.1793458   -3.0272326   -3.8846652 
C    -2.3695685   -3.3459761   -4.8216629 
C    -1.9312520   -3.5404434   -6.2951695 
C    -3.4108973   -2.2027320   -4.7911021 
C    -3.0580367   -4.6400185   -4.3101580 
C    -1.0883891   -1.7870447   -3.2343764 
C    -0.0621624   -1.5279087   -2.3078681 
C     0.9657690    1.1037461   -3.0853030 
C     1.5716146    2.3283860   -2.7759239 
C     1.9887347    3.2344482   -3.7674993 
C     2.3922077    4.6591111   -3.2881360 
C     1.3376640    5.1331319   -2.2443558 
C     3.7741398    4.6172731   -2.5902309 
C     2.3985633    5.7428620   -4.3949221 
C     1.9196761    2.7757124   -5.1146503 
O     2.4387401    3.5428818   -6.1384482 
C     3.8669291    3.5539546   -6.2474997 
C     1.2608009    1.5593597   -5.4708147 
C     0.7887294    0.7459924   -4.4283272 
C     0.9771045    1.1671552   -6.9421677 
C     2.2808862    0.9612403   -7.7542420 
C     0.1794132   -0.1560034   -7.0227554 
C     0.1164574    2.2769806   -7.6025760 
C    -1.3318117    0.9854777   -1.3578973 
C    -1.5913136    2.2477468   -1.9247893 
C    -2.7406179    2.9692423   -1.6007591 
C    -2.2773531    0.4309701   -0.4468684 
C    -3.4273997    1.1703225   -0.1198998 
C    -3.6848759    2.4588950   -0.6846385 
O    -4.3094493    0.5986508    0.7639293 
C    -5.6306216    1.1523397    0.7705922 
C    -5.5722999    2.6750537    0.8219662 
N    -4.8387126    3.1435038   -0.3446623 
C    -5.1971942    4.3927769   -0.9975296 
C    -2.1624889   -0.9702219    0.0742136 
C    -3.0942838   -1.8999920   -0.4065162 
C    -3.0861105   -3.2713647   -0.0180602 
O    -4.0561531   -1.4724267   -1.2941709 
C    -5.3140441   -2.1213393   -1.0574085 
C    -5.1823539   -3.6222282   -1.2809652 
N    -4.0161648   -4.1372558   -0.5631942 
C    -3.9378135   -5.5690023   -0.3180963 
C    -1.1767612   -1.4079501    1.0071542 
C    -1.1684844   -2.7567079    1.4058126 
C    -2.0969650   -3.6754477    0.9067622 
C     0.8468798   -1.0271392    3.0923510 
C     0.6947333   -0.5885959    4.4147924 
C     1.3723994   -1.2096120    5.4793411 
C     1.2225640   -0.6472278    6.9160109 
C     0.4438702    0.6907066    6.9126198 
C     0.4347478   -1.6338964    7.8149209 
C     2.6182692   -0.3650090    7.5327951 
C     2.2041006   -2.3272095    5.1741840 
O     2.7774209   -2.9877808    6.2414909 
C     2.2448970   -4.2678335    6.6054747 
C     2.5010318   -2.7008106    3.8277791 
C     1.7765928   -2.0429690    2.8178212 
C     3.5657892   -3.7468104    3.3982723 
C     4.1602895   -3.3633302    2.0134600 
C     4.7731590   -3.8162353    4.3672581 
C     2.9001289   -5.1395538    3.2479316 
C    -1.0336088    1.0921395    2.4096085 
C    -2.0884988    0.6993250    3.2435157 
C    -2.9154012    1.6328570    3.8912683 
C    -4.0670319    1.0805241    4.7772428 
C    -5.3197121    1.9914623    4.7978384 
C    -3.5557838    0.8417614    6.2223696 
C    -4.5387041   -0.2972428    4.2305121 
C    -2.6181747    3.0096844    3.6638157 
O    -3.3196787    4.0042958    4.3205515 
C    -2.9491014    4.2885373    5.6766838 
C    -1.6463384    3.4345255    2.7053313 
C    -0.8389792    2.4465467    2.1184728 
C    -1.4892154    4.9138612    2.2735632 
C    -0.8987515    5.7753433    3.4177453 
C    -2.8625832    5.4769681    1.8268518 
C    -0.5393020    5.0342528    1.0575336 
H     1.8912443   -7.1036544   -1.7288346 
H     0.2912072   -6.6664858   -2.3977565 
H     1.7569298   -6.5422799   -3.4054020 
H     3.7106975   -5.3922695   -1.5145210 
H     3.3862164   -4.5283427   -3.0453928 
H     3.3294625   -3.6518867   -1.4932761 
H     1.3544681   -4.0536328    0.1654712 
H     1.8425199   -5.7700234    0.1708719 
H     0.1549107   -5.3056227   -0.2142118 
H     1.4802155   -2.3796290   -1.0838630 
H     0.8227689   -4.2449904   -6.0389933 
H     0.9043087   -6.0414398   -5.8924631 
H     1.9360431   -4.9983706   -4.8451255 
H    -2.8257766   -3.6277479   -6.9375851 
H    -1.3390652   -4.4573305   -6.4256038 
H    -1.3413049   -2.6784253   -6.6507286 
H    -3.7526558   -1.9829348   -3.7654243 
H    -3.0096577   -1.2705585   -5.2276606 
H    -4.2871731   -2.4965514   -5.3947428 
H    -2.3910545   -5.5094673   -4.4125920 
H    -3.3257326   -4.5349817   -3.2450073 
H    -3.9790026   -4.8338124   -4.8891525 
H    -1.8131923   -0.9976322   -3.4458028 
H     1.6657071    2.6056360   -1.7195190 
H     1.3165213    4.5055821   -1.3387708 
H     1.5731260    6.1627102   -1.9230737 
H     0.3231482    5.1326851   -2.6799832 
H     3.7625983    3.9192113   -1.7344739 
H     4.0433298    5.6193319   -2.2111879 
H     4.5688935    4.2857824   -3.2796841 
H     1.4726688    5.7160718   -4.9916549 
H     2.4699098    6.7330048   -3.9109841 
H     3.2512347    5.6577093   -5.0821607 
H     4.1116165    4.2894548   -7.0285862 
H     4.3474614    3.8465943   -5.2974438 
H     4.2460834    2.5590249   -6.5402634 
H     0.2809932   -0.1908484   -4.6587502 
H     2.9619000    0.2629839   -7.2370897 
H     2.8070609    1.9101554   -7.9262906 
H     2.0376128    0.5324610   -8.7427205 
H     0.7429163   -1.0067996   -6.5987004 
H    -0.7907339   -0.0892826   -6.4999025 
H    -0.0300088   -0.3880902   -8.0809921 
H     0.6459867    3.2419710   -7.6003503 
H    -0.8395173    2.3970231   -7.0625744 
H    -0.1120383    2.0041088   -8.6487567 
H    -0.8870682    2.6837594   -2.6364484 
H    -2.8990411    3.9478503   -2.0596152 
H    -6.1735850    0.8236955   -0.1365124 
H    -6.1245752    0.7356876    1.6617792 
H    -5.0897821    3.0020478    1.7657214 
H    -6.5948659    3.0868398    0.7986029 
H    -5.1873342    4.2717394   -2.0961981 
H    -4.5174158    5.2271203   -0.7323993 
H    -6.2168481    4.6706568   -0.6896810 
H    -5.6396551   -1.9006139   -0.0223797 
H    -6.0321707   -1.6812001   -1.7657522 
H    -5.0978829   -3.8370794   -2.3635065 
H    -6.0986252   -4.1232998   -0.9113913 
H    -4.6186918   -6.0854369   -1.0123340 
H    -4.2242772   -5.8384563    0.7192831 
H    -2.9146282   -5.9394867   -0.5080880 
H    -0.4368389   -3.1030504    2.1406160 
H    -2.0592252   -4.7101883    1.2555233 
H     0.0404290    0.2594271    4.6158329 
H     0.9241651    1.4471325    6.2687309 
H    -0.5996581    0.5673396    6.5783008 
H     0.4146581    1.0900631    7.9410036 
H     0.2430217   -1.1700323    8.7991268 
H    -0.5398980   -1.8861615    7.3603336 
H     0.9909062   -2.5650361    7.9911090 
H     3.2125273   -1.2847577    7.6273291 
H     2.4975976    0.0840991    8.5348190 
H     3.1824270    0.3476144    6.9062900 
H     2.8132581   -5.0856892    6.1259856 
H     1.1785666   -4.3506799    6.3298757 
H     2.3515145   -4.3602240    7.6983841 
H     1.9552263   -2.3117804    1.7724763 
H     4.9779095   -4.0611765    1.7651291 
H     3.4252328   -3.4314843    1.1945943 
H     4.5788467   -2.3413069    2.0253578 
H     4.5206972   -4.2335594    5.3501608 
H     5.2014168   -2.8121968    4.5305861 
H     5.5555687   -4.4535248    3.9191250 
H     2.0739092   -5.0948395    2.5181405 
H     3.6379421   -5.8800016    2.8896319 
H     2.4867972   -5.5065378    4.1999477 
H    -2.2655314   -0.3689807    3.3844663 
H    -6.1298002    1.4754086    5.3424353 
H    -5.1481929    2.9606978    5.2827723 
H    -5.6750508    2.1939686    3.7734211 
H    -2.7380409    0.1003605    6.2209314 
H    -4.3718101    0.4475295    6.8544499 
H    -3.1741434    1.7614886    6.6920441 
H    -3.7929613   -1.0933882    4.3945918 
H    -4.7477176   -0.2523034    3.1493676 
H    -5.4565800   -0.6036522    4.7611603 
H    -3.1335003    5.3623370    5.8418219 
H    -1.8822804    4.0643678    5.8536429 
H    -3.5680907    3.7107112    6.3873061 
H    -0.0511617    2.7174722    1.4123700 
H    -1.6040536    5.8869406    4.2530950 
H     0.0351233    5.3285633    3.8006436 
H    -0.6679893    6.7885416    3.0417610 
H    -3.2652589    4.8623330    1.0049940 
H    -2.7430419    6.5120328    1.4591861 
H    -3.5887598    5.4769330    2.6525171 
H    -0.4999361    6.0884627    0.7325448 
H     0.4906208    4.7259008    1.3025370 
H    -0.8927398    4.4299194    0.2039440 
