227
Energy =
C    -4.0152739    0.8177122    0.2819167 
C    -4.1071139   -0.1824958   -0.7339727 
C    -3.7810382   -1.5331613   -0.4710423 
H    -4.2891582    0.1303453   -1.7701916 
Pd   -2.0254832   -0.1467653   -0.0324621 
P    -0.2526250   -1.4755912   -0.8068330 
P    -0.5852588    1.5338869    0.6542218 
H    -4.2087152    0.5071322    1.3193594 
H    -3.8215426   -1.8588169    0.5800310 
C    -4.5174839    5.0283621   -0.4822357 
C    -4.0509514    4.1819557   -1.5022892 
C    -3.8839058    2.8141951   -1.2626007 
C    -4.1949615    2.2555904   -0.0006812 
C    -4.6630850    3.1203587    1.0119017 
C    -4.8158300    4.4922015    0.7784290 
H    -4.6430367    6.0999178   -0.6683536 
H    -3.8051185    4.5930023   -2.4875674 
H    -3.4821403    2.1754881   -2.0556628 
H    -4.9070776    2.7079325    1.9953845 
H    -5.1659489    5.1435107    1.5856962 
C    -3.9721081   -4.8298618   -3.2268201 
C    -3.9077122   -3.5177426   -3.7249321 
C    -3.8263754   -2.4317026   -2.8488274 
C    -3.8118120   -2.6328878   -1.4494490 
C    -3.8559270   -3.9598891   -0.9666409 
C    -3.9345280   -5.0477811   -1.8415285 
H    -4.0493175   -5.6760904   -3.9172512 
H    -3.9251453   -3.3407721   -4.8054795 
H    -3.7754269   -1.4198361   -3.2597091 
H    -3.8355608   -4.1328331    0.1126542 
H    -3.9683340   -6.0654250   -1.4387486 
C     2.2745087   -4.0985636   -5.5178278 
C     2.5565603   -2.6123395   -5.1738348 
C     3.1442628   -1.8808356   -6.4062031 
C     3.6719777   -2.6038424   -4.0909743 
C     1.2706829   -1.9365201   -4.6196704 
C     1.0723267   -1.9497550   -3.2274498 
C     0.2694029   -1.2835911   -5.3984943 
O     0.3341849   -1.2722197   -6.7796390 
C    -0.0700981   -2.4515473   -7.4884681 
C    -0.7902343   -0.5336281   -4.8005291 
C    -1.7336467    0.3771462   -5.6251533 
C    -2.6335685    1.2301754   -4.6993630 
C    -2.6664368   -0.4546227   -6.5395294 
C    -0.8925244    1.3686183   -6.4697617 
C    -0.9348920   -0.6125977   -3.4066056 
C    -0.0435813   -1.3547555   -2.6232239 
C    -0.4977992   -3.2515296   -0.4088157 
C    -0.1752378   -4.2759969   -1.3031680 
C    -0.3129993   -5.6385429   -0.9719673 
C     0.0198163   -6.6733140   -2.0822030 
C    -0.5198372   -6.1518165   -3.4440071 
C     1.5595142   -6.8190590   -2.2021518 
C    -0.6352307   -8.0618736   -1.8769809 
C    -0.7438887   -5.9347150    0.3498389 
O    -0.7638201   -7.2358810    0.8136161 
C     0.5040980   -7.7579718    1.2324558 
C    -1.2309578   -4.9226493    1.2337333 
C    -1.0702546   -3.5863542    0.8323738 
C    -1.9814025   -5.2700801    2.5454303 
C    -3.1758563   -6.2112683    2.2314326 
C    -1.0526630   -5.9515783    3.5838882 
C    -2.5563974   -3.9971709    3.2077706 
C     1.4412106   -1.0934007   -0.2164228 
C     2.1479546   -2.0170464    0.5700522 
C     3.4273233   -1.7259398    1.0512980 
C     2.0373044    0.1628991   -0.5209163 
C     3.3205181    0.4469250   -0.0221571 
C     4.0444040   -0.4866624    0.7800294 
O     3.8491756    1.6669444   -0.3534946 
C     4.9602750    2.0982592    0.4365556 
C     5.9735245    0.9744700    0.6024998 
N     5.3157716   -0.1555444    1.2504024 
C     6.1700532   -1.1933739    1.8090646 
C     1.3765179    1.2247532   -1.3509192 
C     1.9245205    1.5215236   -2.6106548 
C     1.4138560    2.5764373   -3.4299733 
O     2.9835231    0.7574926   -3.0274851 
C     3.8333941    1.3752247   -3.9997347 
C     3.0047742    1.9342959   -5.1529163 
N     2.0462292    2.8927692   -4.6200595 
C     1.6384528    4.0431400   -5.4107587 
C     0.2605629    1.9806984   -0.8930142 
C    -0.3078172    2.9544312   -1.7381594 
C     0.2653409    3.2608011   -2.9731224 
C    -1.2724015    3.0381734    1.4490171 
C    -0.9719896    4.3557212    1.1007508 
C    -1.3581019    5.4489766    1.9042637 
C    -1.1053729    6.8745508    1.3415234 
C    -2.2112516    7.8746705    1.7643182 
C     0.3002235    7.3841311    1.7546610 
C    -1.1343380    6.8446435   -0.2131613 
C    -1.9610697    5.1471766    3.1586753 
O    -2.2661641    6.1363533    4.0727134 
C    -1.1970119    6.7445257    4.8082992 
C    -2.3449787    3.8156175    3.5118697 
C    -1.9953177    2.7891653    2.6271749 
C    -3.1228038    3.4832607    4.8093680 
C    -3.4992869    1.9834355    4.8721702 
C    -2.2505567    3.7778498    6.0575210 
C    -4.4425025    4.2959952    4.8734295 
C     0.6664426    1.1755309    1.9547811 
C     0.5382553    0.0507411    2.7679703 
C     1.3171189   -0.1169538    3.9349145 
C     0.9536757   -1.3172834    4.8500850 
C     1.6508560   -1.3610603    6.2308869 
C     1.2476263   -2.6437658    4.1073935 
C    -0.5694029   -1.2145192    5.1544403 
C     2.2852366    0.8815529    4.2028828 
O     3.1916603    0.7095815    5.2349233 
C     4.3204932   -0.0858484    4.8535294 
C     2.3492079    2.1073802    3.4686747 
C     1.5474263    2.2087887    2.3264133 
C     3.0856389    3.3547972    4.0234543 
C     2.4107093    3.7104834    5.3778512 
C     2.9104277    4.5684424    3.0810194 
C     4.6043376    3.1540578    4.2590411 
H     3.1946753   -4.5805562   -5.8943871 
H     1.9480716   -4.6465840   -4.6183066 
H     1.4927837   -4.2160792   -6.2829505 
H     4.0946124   -2.3638300   -6.6935485 
H     2.4776967   -1.8883388   -7.2778335 
H     3.3600052   -0.8262443   -6.1656031 
H     3.8180422   -1.5958371   -3.6688701 
H     4.6189567   -2.9419443   -4.5457641 
H     3.4542390   -3.2920688   -3.2562329 
H     1.8201024   -2.4167298   -2.5840746 
H     0.8092526   -3.0515181   -7.7854578 
H    -0.5934959   -2.1212769   -8.4008986 
H    -0.7497599   -3.0712858   -6.8774155 
H    -3.2415155    1.9150991   -5.3148936 
H    -2.0346916    1.8380664   -3.9996023 
H    -3.3366738    0.6113073   -4.1140214 
H    -2.1083331   -0.9864030   -7.3217989 
H    -3.2344885   -1.1952805   -5.9496601 
H    -3.3917901    0.2109487   -7.0408734 
H    -0.2678103    0.8420982   -7.2055769 
H    -1.5581787    2.0693614   -7.0051481 
H    -0.2340047    1.9527474   -5.8059893 
H    -1.7356978   -0.0697977   -2.8987185 
H     0.1835179   -4.0114457   -2.2982022 
H    -0.0460818   -5.2112773   -3.7671152 
H    -0.3167943   -6.9033353   -4.2264434 
H    -1.6064589   -5.9798128   -3.3949971 
H     2.0298670   -5.8431397   -2.4176046 
H     1.8158304   -7.5135165   -3.0222863 
H     2.0092733   -7.2080818   -1.2731306 
H    -1.7131267   -7.9652125   -1.6650375 
H    -0.5185205   -8.6463502   -2.8065780 
H    -0.1816999   -8.6448754   -1.0642516 
H     0.2919325   -8.7015847    1.7576475 
H     1.1640981   -7.9641043    0.3704228 
H     1.0158903   -7.0576012    1.9174078 
H    -1.4083749   -2.7759023    1.4842458 
H    -2.8352629   -7.1446020    1.7592740 
H    -3.9008739   -5.7197718    1.5591747 
H    -3.7051103   -6.4635095    3.1676484 
H    -1.5629066   -5.9988351    4.5625514 
H    -0.8046079   -6.9814423    3.2920980 
H    -0.1170166   -5.3818455    3.7147522 
H    -3.2405739   -3.4515432    2.5330267 
H    -1.7638183   -3.3044979    3.5338965 
H    -3.1345210   -4.2832855    4.1027155 
H     1.7032336   -2.9890784    0.8006306 
H     3.9538131   -2.4805089    1.6395547 
H     5.3954777    2.9579511   -0.0956969 
H     4.5954117    2.4277729    1.4256254 
H     6.8048106    1.3189282    1.2419937 
H     6.3961687    0.6980266   -0.3881139 
H     6.4410967   -1.9709944    1.0639286 
H     5.6743454   -1.6876510    2.6612126 
H     7.0944650   -0.7252847    2.1818138 
H     4.4169691    2.1813386   -3.5151476 
H     4.5190784    0.5862791   -4.3446222 
H     2.4955037    1.1058172   -5.6863175 
H     3.6675887    2.4461016   -5.8710653 
H     0.6604187    3.9000438   -5.9124639 
H     2.3977405    4.2236032   -6.1874484 
H     1.5737381    4.9438015   -4.7734909 
H    -1.2169603    3.4797972   -1.4360636 
H    -0.1938991    4.0324487   -3.5955968 
H    -0.4097624    4.5507106    0.1881349 
H    -3.2067905    7.4813602    1.4937958 
H    -2.2224462    8.0875863    2.8408577 
H    -2.0616059    8.8283189    1.2281792 
H     0.4746775    8.3939819    1.3413000 
H     0.4286693    7.4374273    2.8459045 
H     1.0822158    6.7128848    1.3580319 
H    -2.0606999    6.3770459   -0.5869140 
H    -0.2753889    6.3041822   -0.6465683 
H    -1.0878315    7.8795258   -0.5937233 
H    -1.5789578    6.9523833    5.8212271 
H    -0.8920499    7.7003904    4.3454734 
H    -0.3238812    6.0714148    4.8746940 
H    -2.2467265    1.7531643    2.8696584 
H    -4.0849359    1.7979475    5.7886216 
H    -4.1230010    1.6745819    4.0141689 
H    -2.6095973    1.3307170    4.9079916 
H    -2.0777685    4.8536555    6.1941994 
H    -1.2725943    3.2700267    5.9801346 
H    -2.7592895    3.4055753    6.9647625 
H    -5.1013209    4.0350819    4.0263442 
H    -4.9835801    4.0576158    5.8066424 
H    -4.2486752    5.3780306    4.8445641 
H    -0.2059837   -0.7062631    2.4970214 
H     1.1768693   -2.1607659    6.8281758 
H     2.7223548   -1.5997742    6.1633040 
H     1.5427846   -0.4112883    6.7766583 
H     0.6964177   -2.7156967    3.1545990 
H     0.9575016   -3.5033574    4.7372250 
H     2.3233611   -2.7336168    3.8763821 
H    -1.1874199   -1.2033030    4.2418562 
H    -0.7850273   -0.2906745    5.7188932 
H    -0.8900700   -2.0754915    5.7670691 
H     4.9942330   -0.1155014    5.7234736 
H     4.8399762    0.3571831    3.9840198 
H     4.0125022   -1.1160997    4.5899916 
H     1.5622620    3.1200900    1.7255955 
H     1.3314299    3.8971455    5.2338390 
H     2.5321863    2.8907555    6.1041413 
H     2.8685608    4.6226373    5.8019995 
H     3.3588332    4.3938197    2.0863032 
H     3.4114358    5.4468704    3.5229391 
H     1.8477766    4.8286760    2.9377523 
H     5.0693636    4.1257700    4.5029468 
H     4.7974251    2.4706180    5.0971231 
H     5.1072407    2.7594552    3.3590865 
