227
Energy =
C    -4.0588394    0.6988293    0.2449323 
C    -4.0777054   -0.2630751   -0.8117950 
C    -3.7290827   -1.6164536   -0.5931198 
H    -4.2169075    0.0917810   -1.8413737 
Pd   -2.0306305   -0.1873787   -0.0287030 
P    -0.2381232   -1.4967631   -0.7836989 
P    -0.6184732    1.5215093    0.6728139 
H    -4.2936596    0.3455926    1.2601088 
H    -3.8159609   -1.9972256    0.4360895 
C    -4.6751703    4.9085387   -0.4379182 
C    -4.0406735    4.1234984   -1.4151196 
C    -3.8434171    2.7561903   -1.2001397 
C    -4.2742139    2.1387199   -0.0030435 
C    -4.9066374    2.9402747    0.9698704 
C    -5.1093999    4.3083717    0.7523915 
H    -4.8290714    5.9796708   -0.6043867 
H    -3.6906780    4.5817583   -2.3465971 
H    -3.3161323    2.1633187   -1.9540872 
H    -5.2463360    2.4831468    1.9039684 
H    -5.6109661    4.9076107    1.5180084 
C    -3.3791923   -4.7435201   -3.5350400 
C    -3.4228417   -3.4032909   -3.9505698 
C    -3.5582064   -2.3766607   -3.0118787 
C    -3.6377971   -2.6613251   -1.6290997 
C    -3.6113942   -4.0168079   -1.2295336 
C    -3.4864567   -5.0442901   -2.1699476 
H    -3.2681715   -5.5471375   -4.2704500 
H    -3.3468003   -3.1556351   -5.0143257 
H    -3.5873209   -1.3421266   -3.3615516 
H    -3.6785264   -4.2615580   -0.1655650 
H    -3.4672862   -6.0846057   -1.8350464 
C     2.1089357   -4.1652132   -5.5405920 
C     2.4523858   -2.6864147   -5.2192779 
C     3.0268960   -1.9813081   -6.4730530 
C     3.5989443   -2.6983305   -4.1688593 
C     1.2042617   -1.9710054   -4.6332258 
C     1.0306654   -1.9996555   -3.2377846 
C     0.2156550   -1.2703271   -5.3841931 
O     0.2460985   -1.2530212   -6.7666221 
C    -0.2264289   -2.4137648   -7.4633757 
C    -0.7937527   -0.4774022   -4.7566015 
C    -1.7043754    0.4889745   -5.5560898 
C    -2.6812961   -0.2723064   -6.4856115 
C    -0.8235047    1.4568144   -6.3872057 
C    -2.5604409    1.3596466   -4.6070417 
C    -0.9113674   -0.5673533   -3.3609499 
C    -0.0490729   -1.3716325   -2.6039569 
C    -0.4813472   -3.2626880   -0.3372873 
C    -1.0929930   -3.5465577    0.8977063 
C    -1.3313377   -4.8644693    1.3216797 
C    -1.9850174   -5.1405654    2.6990940 
C    -2.3429577   -3.8217540    3.4186242 
C    -3.2980595   -5.9579080    2.5855850 
C    -0.9714827   -5.9133736    3.5844360 
C    -0.8977679   -5.9183089    0.4594399 
O    -1.1976197   -7.2126729    0.8358638 
C    -2.2234810   -7.8611846    0.0746345 
C    -0.1392600   -5.6675207   -0.7166862 
C    -0.0170807   -4.3227106   -1.1198939 
C     0.6268511   -6.7164508   -1.5716520 
C     0.8246632   -8.0996898   -0.9033498 
C    -0.0776950   -6.8903287   -2.9412113 
C     2.0649248   -6.1698744   -1.8158068 
C     1.4555616   -1.1090243   -0.2049417 
C     2.1841106   -2.0341480    0.5599439 
C     3.4755832   -1.7419314    1.0065593 
C     2.0355591    0.1525261   -0.5135249 
C     3.3312541    0.4382610   -0.0482367 
C     4.0822400   -0.5005272    0.7221947 
O     3.8480358    1.6607441   -0.3888414 
C     4.9947312    2.0832435    0.3535285 
C     6.0074807    0.9534486    0.4739866 
N     5.3699008   -0.1726756    1.1477781 
C     6.2383278   -1.2106910    1.6836900 
C     1.3579248    1.2129070   -1.3313271 
C     1.9064615    1.5107797   -2.5910136 
C     1.4214096    2.5879176   -3.3952689 
O     2.9462290    0.7268357   -3.0188288 
C     3.8098645    1.3327743   -3.9860080 
C     2.9926348    1.9267515   -5.1296494 
N     2.0612271    2.9040588   -4.5816987 
C     1.6928124    4.0840689   -5.3481182 
C     0.2447324    1.9726219   -0.8689620 
C    -0.2951000    2.9740063   -1.7000714 
C     0.2919942    3.2941986   -2.9253390 
C    -1.3250284    3.0387600    1.4377536 
C    -2.0638509    2.8121094    2.6064219 
C    -2.4247960    3.8509673    3.4830403 
C    -2.9668581    3.4391066    4.8812781 
C    -4.3985842    2.8611616    4.7608501 
C    -2.0311885    2.3232119    5.4336020 
C    -2.9499800    4.5639199    5.9457722 
C    -2.1630091    5.1776199    3.0369913 
O    -2.6520544    6.2602570    3.7417279 
C    -4.0558215    6.5036230    3.6035642 
C    -1.3411766    5.4445653    1.9025221 
C    -0.9206054    4.3474073    1.1327600 
C    -0.8555691    6.8717941    1.5470446 
C     0.1369267    6.8470738    0.3604503 
C    -2.0420505    7.7799129    1.1339320 
C    -0.1160673    7.4936862    2.7615239 
C     0.6577620    1.1916219    1.9601107 
C     1.5554634    2.2308566    2.2684672 
C     2.4114288    2.1548517    3.3727847 
C     3.1559989    3.4221550    3.8700321 
C     2.4791962    3.8301788    5.2088635 
C     2.9835521    4.5940460    2.8755157 
C     4.6746609    3.2378768    4.1194928 
C     2.3885269    0.9418707    4.1301055 
O     3.3406252    0.7929928    5.1232496 
C     4.4687113    0.0188077    4.6985922 
C     1.4178621   -0.0687136    3.9223208 
C     0.5752290    0.0789871    2.7963352 
C     1.1283769   -1.2721157    4.8607913 
C    -0.3709612   -1.1896258    5.2676810 
C     1.9114206   -1.3116821    6.1952814 
C     1.3968150   -2.5928919    4.0979953 
H     3.0070563   -4.6929770   -5.9090691 
H     1.7546207   -4.6851620   -4.6342664 
H     1.3236899   -4.2574961   -6.3059564 
H     3.9634020   -2.4836994   -6.7723679 
H     2.3444801   -1.9906013   -7.3323117 
H     3.2636715   -0.9265908   -6.2511821 
H     3.7821835   -1.6900045   -3.7616773 
H     4.5237389   -3.0635815   -4.6473815 
H     3.3911971   -3.3721826   -3.3206173 
H     1.7786663   -2.4958771   -2.6170405 
H    -0.9456325   -2.9827349   -6.8477527 
H     0.6137777   -3.0721220   -7.7496347 
H    -0.7242816   -2.0613253   -8.3815522 
H    -3.3627626    0.4452598   -6.9766388 
H    -3.2994694   -0.9840838   -5.9116796 
H    -2.1548579   -0.8229880   -7.2762862 
H    -0.1370298    1.9992624   -5.7175615 
H    -0.2271547    0.9146353   -7.1353537 
H    -1.4596608    2.1950147   -6.9079571 
H    -1.9325452    1.9270842   -3.8997577 
H    -3.1439434    2.0820395   -5.2030193 
H    -3.2849908    0.7579798   -4.0299436 
H    -1.6708632    0.0109029   -2.8285322 
H    -1.4188797   -2.7070601    1.5183228 
H    -3.0933284   -3.2346371    2.8576402 
H    -2.7732042   -4.0516795    4.4080463 
H    -1.4588189   -3.1885969    3.5850413 
H    -3.9881740   -5.5121486    1.8467863 
H    -3.8121345   -5.9606369    3.5629367 
H    -3.1078647   -7.0040337    2.3114943 
H    -0.0465374   -5.3264586    3.7172150 
H    -1.4074534   -6.1005504    4.5824076 
H    -0.7119132   -6.8815701    3.1288299 
H    -1.9819931   -7.8819710   -1.0026775 
H    -2.2866637   -8.8916419    0.4549580 
H    -3.1972359   -7.3575335    0.2142709 
H     0.4743323   -4.1036887   -2.0689359 
H    -0.0925141   -8.7032890   -0.8677502 
H     1.2119881   -8.0013784    0.1233615 
H     1.5613540   -8.6685996   -1.4975369 
H     0.5026519   -7.5738838   -3.5864469 
H    -1.0907102   -7.3121605   -2.8218642 
H    -0.1813103   -5.9241414   -3.4652921 
H     2.5869772   -6.0024635   -0.8576012 
H     2.0732981   -5.2218818   -2.3764800 
H     2.6444426   -6.9035202   -2.4026783 
H     1.7496247   -3.0087923    0.7977899 
H     4.0204769   -2.4985574    1.5750188 
H     5.4109272    2.9424830   -0.1944948 
H     4.6748303    2.4116596    1.3580302 
H     6.8669810    1.2920341    1.0781690 
H     6.3861526    0.6753674   -0.5338564 
H     6.4813458   -1.9938512    0.9347487 
H     5.7690968   -1.6977691    2.5548077 
H     7.1764519   -0.7441529    2.0225684 
H     4.4158876    2.1172614   -3.4935920 
H     4.4727569    0.5296815   -4.3426714 
H     2.4599932    1.1174370   -5.6700268 
H     3.6655603    2.4294773   -5.8446337 
H     2.4565018    4.2536408   -6.1229299 
H     1.6606084    4.9731752   -4.6924148 
H     0.7095362    3.9849512   -5.8502013 
H    -1.1899196    3.5179532   -1.3888762 
H    -0.1437706    4.0917159   -3.5318974 
H    -2.3021651    1.7770581    2.8767551 
H    -5.1056941    3.6070514    4.3575979 
H    -4.4176814    1.9796698    4.0954690 
H    -4.7680823    2.5438263    5.7522161 
H    -2.3550595    2.0371387    6.4497038 
H    -2.0460741    1.4123137    4.8145155 
H    -0.9864673    2.6758661    5.4872816 
H    -3.7290209    5.3231682    5.7902590 
H    -1.9740474    5.0742675    5.9788340 
H    -3.1345281    4.1070575    6.9341570 
H    -4.6543081    5.6174712    3.8817056 
H    -4.3049230    6.7903594    2.5654049 
H    -4.2943669    7.3355288    4.2831317 
H    -0.2530011    4.5141964    0.2881400 
H     0.4856342    7.8752366    0.1627598 
H     1.0270075    6.2302730    0.5769132 
H    -0.3304013    6.4699614   -0.5668109 
H    -2.6951304    8.0059037    1.9883658 
H    -2.6444963    7.3034473    0.3405166 
H    -1.6589410    8.7402818    0.7447953 
H     0.7599153    6.8815165    3.0383625 
H     0.2433693    8.5059043    2.5023145 
H    -0.7798465    7.5708924    3.6353855 
H     1.5465796    3.1271017    1.6458179 
H     2.9423784    4.7525147    5.6038095 
H     1.4022918    4.0214035    5.0557486 
H     2.5938871    3.0332323    5.9619187 
H     3.4228378    4.3700649    1.8866860 
H     3.4922716    5.4880828    3.2746608 
H     1.9222575    4.8555033    2.7280146 
H     5.1857217    2.8102233    3.2394654 
H     4.8682831    2.5917816    4.9863471 
H     5.1317446    4.2223946    4.3233953 
H     4.1702525   -1.0185563    4.4528670 
H     5.1785948    0.0070678    5.5397260 
H     4.9426981    0.4652513    3.8054381 
H    -0.1742592   -0.6887190    2.5737758 
H    -0.5495397   -0.2891472    5.8790486 
H    -1.0489700   -1.1472172    4.4002351 
H    -0.6469176   -2.0744590    5.8679600 
H     2.9788756   -1.5400893    6.0609259 
H     1.4835170   -2.1186908    6.8170330 
H     1.8275511   -0.3651500    6.7504906 
H     1.1455191   -3.4587544    4.7358137 
H     0.8033798   -2.6658246    3.1711216 
H     2.4609107   -2.6704842    3.8152483 
