227
Energy =
C    -4.0021813    0.7642065    0.1043268 
C    -3.9981946   -0.1847819   -0.9645504 
C    -3.6653325   -1.5434236   -0.7582715 
H    -4.1058358    0.1844962   -1.9925655 
Pd   -1.9732898   -0.1347345   -0.1160922 
P    -0.1717862   -1.4505685   -0.8346404 
P    -0.5851021    1.5430345    0.6970198 
H    -4.2670827    0.4028993    1.1089620 
H    -3.7723828   -1.9380592    0.2635057 
C    -4.5728566    4.9852851   -0.5536880 
C    -4.9818782    4.3883531    0.6473914 
C    -4.7921842    3.0174892    0.8570333 
C    -4.1960034    2.2086887   -0.1337443 
C    -3.7849362    2.8245658   -1.3390403 
C    -3.9719338    4.1947556   -1.5469583 
H    -4.7220562    6.0576951   -0.7161285 
H    -5.4548172    4.9927505    1.4266010 
H    -5.1131220    2.5633036    1.7990814 
H    -3.2826775    2.2300434   -2.1086097 
H    -3.6400546    4.6499766   -2.4865140 
C    -3.2666227   -4.6341358   -3.7331820 
C    -3.3591598   -3.2924811   -4.1360634 
C    -3.5068075   -2.2767996   -3.1873440 
C    -3.5567049   -2.5749327   -1.8058691 
C    -3.4853856   -3.9328442   -1.4191462 
C    -3.3413946   -4.9488713   -2.3691512 
H    -3.1446422   -5.4278738   -4.4776239 
H    -3.3132624   -3.0353652   -5.1990724 
H    -3.5720835   -1.2407141   -3.5284759 
H    -3.5288944   -4.1883829   -0.3567077 
H    -3.2816667   -5.9903541   -2.0422345 
C     2.0312026   -4.4171400   -5.4110920 
C     2.4290403   -2.9268203   -5.2431243 
C     2.9716106   -2.3673940   -6.5824855 
C     3.6145046   -2.8794449   -4.2365737 
C     1.2250917   -2.1248994   -4.6752829 
C     1.0693622   -2.0857125   -3.2773035 
C     0.2627053   -1.4060837   -5.4436567 
O     0.2696305   -1.4577315   -6.8250952 
C    -0.3140287   -2.6178989   -7.4326357 
C    -0.6894679   -0.5294157   -4.8390481 
C    -1.5257791    0.4801059   -5.6673055 
C    -2.5432726   -0.2189621   -6.6029526 
C    -0.5665802    1.3649952   -6.5069989 
C    -2.3319526    1.4208636   -4.7418992 
C    -0.8035248   -0.5681089   -3.4396581 
C     0.0224625   -1.3891950   -2.6592907 
C    -0.4400354   -3.1954099   -0.3207878 
C    -1.1192032   -3.4125555    0.8925074 
C    -1.4233086   -4.7037655    1.3538750 
C    -2.1740747   -4.9025991    2.6945680 
C    -2.5128843   -3.5440810    3.3464115 
C    -3.5160864   -5.6599141    2.5174548 
C    -1.2616044   -5.6914205    3.6704671 
C    -0.9804150   -5.8035947    0.5568557 
O    -1.3540292   -7.0700656    0.9600185 
C    -2.3583514   -7.7048590    0.1590956 
C    -0.1486585   -5.6232065   -0.5823936 
C     0.0360737   -4.3002396   -1.0318698 
C     0.6255314   -6.7318122   -1.3499380 
C     2.0843879   -6.2309363   -1.5681621 
C     0.7639442   -8.0772557   -0.5949016 
C    -0.0280553   -6.9686826   -2.7353246 
C     1.5174804   -1.0460520   -0.2601526 
C     2.2692475   -1.9765212    0.4753575 
C     3.5627524   -1.6741817    0.9104261 
C     2.0697641    0.2342103   -0.5408821 
C     3.3605000    0.5356763   -0.0717137 
C     4.1426608   -0.4147413    0.6527755 
O     3.8347696    1.7850222   -0.3630656 
C     5.0141685    2.1947749    0.3325800 
C     6.0365872    1.0683935    0.3817829 
N     5.4341803   -0.0759420    1.0584307 
C     6.3316339   -1.1147461    1.5425673 
C     1.3705181    1.3034353   -1.3298946 
C     1.8843988    1.6184188   -2.6018664 
C     1.3659586    2.6996592   -3.3803428 
O     2.9348485    0.8644373   -3.0506171 
C     3.2043493    0.9623889   -4.4535957 
C     3.2479618    2.4196546   -4.8897337 
N     1.9568307    3.0265676   -4.5953215 
C     1.5958583    4.2607913   -5.2769955 
C     0.2670072    2.0537022   -0.8309965 
C    -0.3027550    3.0600501   -1.6333738 
C     0.2534512    3.4003295   -2.8676936 
C    -1.3309245    3.0140340    1.5096691 
C    -2.0856200    2.7244868    2.6536187 
C    -2.4915075    3.7192542    3.5612219 
C    -3.0644291    3.2359017    4.9239380 
C    -3.1066217    4.3120914    6.0368912 
C    -4.4788312    2.6347935    4.7310075 
C    -2.1216885    2.1167293    5.4573120 
C    -2.2481845    5.0682106    3.1753931 
O    -2.7659380    6.1101257    3.9198796 
C    -4.1705744    6.3426479    3.7734135 
C    -1.4126720    5.3981326    2.0671138 
C    -0.9548675    4.3425711    1.2609824 
C    -0.9467547    6.8475953    1.7824325 
C     0.0522157    6.8943143    0.6020198 
C    -2.1421404    7.7601927    1.4067588 
C    -0.2233303    7.4177157    3.0316320 
C     0.6999086    1.1949569    1.9694359 
C     0.6462687    0.0587139    2.7758113 
C     1.5129155   -0.1087874    3.8809038 
C     1.2483564   -1.3358272    4.7960849 
C    -0.2252487   -1.2276176    5.2814923 
C     2.0985470   -1.4415652    6.0848124 
C     1.4443703   -2.6382334    3.9812213 
C     2.4722003    0.9100697    4.1006868 
O     3.4452967    0.7447302    5.0705892 
C     4.5782510    0.0067352    4.5966928 
C     2.4624253    2.1452738    3.3802693 
C     1.5867163    2.2391811    2.2929132 
C     3.1910283    3.4108680    3.9047883 
C     4.7150453    3.2484755    4.1350740 
C     2.5206340    3.7674219    5.2615662 
C     2.9875961    4.6067443    2.9453763 
H     2.8937351   -5.0038873   -5.7751719 
H     1.7101874   -4.8438184   -4.4458806 
H     1.2030678   -4.5502471   -6.1249053 
H     3.9129880   -2.8877857   -6.8318335 
H     2.2800034   -2.5041952   -7.4236532 
H     3.1892770   -1.2889068   -6.5040578 
H     3.8537267   -1.8458745   -3.9351297 
H     4.5077679   -3.3233476   -4.7080145 
H     3.4162139   -3.4590269   -3.3193615 
H     1.8030471   -2.5894106   -2.6452209 
H     0.4201823   -3.4388911   -7.5213795 
H    -0.6332027   -2.3183678   -8.4432477 
H    -1.1871429   -2.9722463   -6.8558875 
H    -3.1807687    0.5414908   -7.0882209 
H    -3.2041619   -0.8979340   -6.0372295 
H    -2.0474099   -0.7898262   -7.3993363 
H     0.1615239    1.8702492   -5.8505570 
H    -0.0133552    0.7608787   -7.2415844 
H    -1.1446565    2.1348767   -7.0496127 
H    -1.6802274    1.9564766   -4.0315550 
H    -2.8578435    2.1716813   -5.3562273 
H    -3.1029085    0.8757576   -4.1683154 
H    -1.5319557    0.0633600   -2.9237003 
H    -1.4538670   -2.5389899    1.4593957 
H    -3.2033362   -2.9464510    2.7231632 
H    -3.0078282   -3.7190068    4.3166703 
H    -1.6116931   -2.9434603    3.5413716 
H    -4.1338393   -5.2053627    1.7220392 
H    -4.0920518   -5.6073302    3.4582989 
H    -3.3609094   -6.7221263    2.2865073 
H    -0.3225749   -5.1418068    3.8526757 
H    -1.7747086   -5.8277663    4.6395391 
H    -1.0157625   -6.6838021    3.2620404 
H    -3.2997317   -7.1259249    0.1724845 
H    -2.0287285   -7.8292922   -0.8874694 
H    -2.5304184   -8.6950149    0.6067631 
H     0.5829467   -4.1369035   -1.9611591 
H     2.5699507   -6.0082404   -0.6019462 
H     2.1385898   -5.3249087   -2.1924917 
H     2.6710143   -7.0147613   -2.0778762 
H     1.5074644   -8.6980304   -1.1252253 
H     1.1161922   -7.9255234    0.4381776 
H    -0.1690953   -8.6557379   -0.5565087 
H    -0.1086142   -6.0278601   -3.3070674 
H    -1.0458677   -7.3831514   -2.6357251 
H     0.5734213   -7.6830017   -3.3253551 
H     1.8510869   -2.9613918    0.6997453 
H     4.1290924   -2.4357747    1.4508699 
H     5.4010008    3.0679396   -0.2152858 
H     4.7412458    2.5000743    1.3581095 
H     6.9204037    1.3984371    0.9543649 
H     6.3694452    0.8139333   -0.6480292 
H     6.5668051   -1.8732258    0.7660512 
H     5.8921073   -1.6330410    2.4111386 
H     7.2711099   -0.6432897    1.8707790 
H     4.1746681    0.4682409   -4.6106594 
H     2.4216081    0.4168689   -5.0134243 
H     3.4310249    2.4744638   -5.9767163 
H     4.0816803    2.9428132   -4.3732782 
H     2.1473987    4.3103435   -6.2280722 
H     1.8388613    5.1624746   -4.6773187 
H     0.5171618    4.2761220   -5.5124898 
H    -1.1886794    3.5982525   -1.2895809 
H    -0.1838328    4.2235806   -3.4366556 
H    -2.3047443    1.6742651    2.8779131 
H    -2.1450364    4.8428135    6.1229244 
H    -3.8994252    5.0588081    5.8912111 
H    -3.3100035    3.8073180    6.9978717 
H    -4.8703165    2.2584360    5.6928624 
H    -5.1904883    3.3862019    4.3461981 
H    -4.4593970    1.7892987    4.0201885 
H    -1.0865764    2.4879783    5.5553717 
H    -2.0996623    1.2310745    4.8028192 
H    -2.4677663    1.7830465    6.4512611 
H    -4.4016134    6.7279361    2.7633840 
H    -4.4406555    7.0997211    4.5249177 
H    -4.7582550    5.4234714    3.9477869 
H    -0.2804710    4.5575798    0.4325259 
H     0.3840928    7.9362633    0.4539404 
H     0.9520082    6.2839332    0.7947103 
H    -0.4045847    6.5523917   -0.3439544 
H    -2.7968691    7.9444911    2.2698059 
H    -2.7396595    7.3113316    0.5939696 
H    -1.7680992    8.7394277    1.0581726 
H     0.6591157    6.8040983    3.2837875 
H     0.1236016    8.4465341    2.8262996 
H    -0.8940657    7.4420507    3.9034726 
H    -0.0965016   -0.7131645    2.5458998 
H    -0.4992218   -2.1261132    5.8623088 
H    -0.3482732   -0.3446197    5.9311505 
H    -0.9402317   -1.1324302    4.4488860 
H     3.1538712   -1.6781503    5.8833217 
H     1.6917893   -2.2701392    6.6922217 
H     2.0582631   -0.5199662    6.6844118 
H     2.4862220   -2.7213091    3.6267461 
H     0.7885125   -2.6827852    3.0952438 
H     1.2242889   -3.5168571    4.6129346 
H     4.2881332   -1.0196571    4.3002137 
H     5.2960930   -0.0397381    5.4298514 
H     5.0385053    0.5032440    3.7230876 
H     1.5552105    3.1518624    1.6954006 
H     4.9292323    2.5788907    4.9789271 
H     5.2261430    2.8597528    3.2372221 
H     5.1545158    4.2349526    4.3663457 
H     1.4378640    3.9381815    5.1259555 
H     2.9680088    4.6887273    5.6767038 
H     2.6617512    2.9528878    5.9910764 
H     3.4875818    5.4974975    3.3624882 
H     3.4171731    4.4162603    1.9453397 
H     1.9205942    4.8555840    2.8186571 
