227
Energy =
C    -4.0374343    0.7279310    0.3528516 
C    -4.1136116   -0.2729791   -0.6642183 
C    -3.7554419   -1.6160715   -0.4070629 
H    -4.3093839    0.0380407   -1.6985058 
Pd   -2.0317908   -0.1810084    0.0259253 
P    -0.2352026   -1.4806483   -0.7492761 
P    -0.6267016    1.5426967    0.6925235 
H    -4.2211903    0.4147326    1.3912359 
H    -3.7836054   -1.9469631    0.6425848 
C    -4.6440471    4.9188445   -0.4398907 
C    -4.9640676    4.3760957    0.8122827 
C    -4.7673492    3.0130946    1.0634843 
C    -4.2517943    2.1598404    0.0652027 
C    -3.9320106    2.7209460   -1.1934500 
C    -4.1266101    4.0828259   -1.4433820 
H    -4.7930598    5.9857708   -0.6338922 
H    -5.3685195    5.0172557    1.6010121 
H    -5.0149827    2.5998517    2.0467022 
H    -3.4961314    2.0886675   -1.9736196 
H    -3.8667718    4.4967043   -2.4238824 
C    -3.8773087   -4.9015505   -3.1809057 
C    -3.8382516   -5.1259983   -1.7967161 
C    -3.7833871   -4.0413282   -0.9161016 
C    -3.7648589   -2.7111480   -1.3914143 
C    -3.7828536   -2.5029279   -2.7897133 
C    -3.8404865   -3.5857091   -3.6717270 
H    -3.9347839   -5.7454372   -3.8761229 
H    -3.8519038   -6.1461828   -1.3991827 
H    -3.7614876   -4.2195696    0.1621041 
H    -3.7519807   -1.4882206   -3.1953307 
H    -3.8602939   -3.4033119   -4.7513021 
C     2.3264006   -4.0727125   -5.4495750 
C     2.5763621   -2.5762537   -5.1257749 
C     3.1365221   -1.8467885   -6.3720969 
C     3.6995485   -2.5281658   -4.0516908 
C     1.2795191   -1.9239415   -4.5690022 
C     1.0866299   -1.9375712   -3.1760454 
C     0.2635273   -1.2914946   -5.3452189 
O     0.3212475   -1.2826043   -6.7268099 
C    -0.0697989   -2.4714812   -7.4267117 
C    -0.8068411   -0.5588884   -4.7446636 
C    -1.7679284    0.3346162   -5.5682001 
C    -2.6832895    1.1695849   -4.6411632 
C    -2.6858168   -0.5115658   -6.4846049 
C    -0.9451458    1.3422479   -6.4117686 
C    -0.9444481   -0.6369123   -3.3498825 
C    -0.0375735   -1.3620274   -2.5682271 
C    -0.4465968   -3.2614699   -0.3466339 
C    -0.0908212   -4.2794091   -1.2362710 
C    -0.2001781   -5.6445403   -0.9056730 
C     0.1669210   -6.6712591   -2.0125866 
C    -0.3977539   -6.1736573   -3.3732241 
C     1.7105729   -6.7613167   -2.1351314 
C    -0.4343441   -8.0831088   -1.8025410 
C    -0.6372346   -5.9497523    0.4115882 
O    -0.6239036   -7.2502773    0.8772673 
C     0.6561163   -7.7280731    1.3121671 
C    -1.1613623   -4.9498052    1.2875376 
C    -1.0265725   -3.6097221    0.8877001 
C    -1.9251780   -5.3185316    2.5858726 
C    -1.0008873   -5.9831923    3.6391071 
C    -2.5415195   -4.0614838    3.2406238 
C    -3.0910685   -6.2874668    2.2487782 
C     1.4580239   -1.0677243   -0.1773080 
C     2.1942953   -1.9809901    0.5936194 
C     3.4821139   -1.6736392    1.0417019 
C     2.0301737    0.1957884   -0.4965792 
C     3.3211322    0.4974191   -0.0284683 
C     4.0777081   -0.4280518    0.7524183 
O     3.8250210    1.7229333   -0.3762474 
C     4.9671330    2.1641192    0.3620233 
C     5.9881806    1.0439556    0.5006162 
N     5.3600854   -0.0825845    1.1842560 
C     6.2458142   -1.1165312    1.7012071 
C     1.3415352    1.2415183   -1.3235294 
C     1.8774714    1.5430485   -2.5881880 
C     1.3455116    2.5850483   -3.4097425 
O     2.9489002    0.7979961   -3.0078374 
C     3.7898844    1.4361626   -3.9744041 
C     2.9542109    1.9790936   -5.1301382 
N     1.9714967    2.9139520   -4.5997163 
C     1.5425605    4.0573745   -5.3892947 
C     0.2108407    1.9749182   -0.8659779 
C    -0.3809965    2.9298181   -1.7171151 
C     0.1822640    3.2446305   -2.9541973 
C    -1.3181545    3.0716878    1.4457549 
C    -0.9841915    4.3738116    1.0664942 
C    -1.3571294    5.5001253    1.8296585 
C    -0.8573215    6.8848419    1.3247036 
C    -0.7216656    7.9557786    2.4369357 
C     0.5647422    6.7373215    0.7089170 
C    -1.7946582    7.3938137    0.1983018 
C    -2.1238878    5.2577662    3.0042947 
O    -2.5697817    6.3069983    3.7854551 
C    -3.7310527    7.0058264    3.3254032 
C    -2.3818563    3.9340128    3.4807471 
C    -1.9955194    2.8679625    2.6597750 
C    -2.9603086    3.6506059    4.8896480 
C    -4.3767021    4.2460192    5.0904726 
C    -3.0649904    2.1302079    5.1552426 
C    -1.9887265    4.2453981    5.9444775 
C     0.6243139    1.1896333    1.9964773 
C     1.5199528    2.2090661    2.3728268 
C     2.3524736    2.0707368    3.4904543 
C     3.1398272    3.2853505    4.0472016 
C     2.5359509    3.6242820    5.4386175 
C     2.9534313    4.5259381    3.1441575 
C     4.6619881    3.0400228    4.2114399 
C     2.2934679    0.8298008    4.1979552 
O     3.2279641    0.6214569    5.1969274 
C     4.3277203   -0.1904415    4.7684218 
C     1.3045936   -0.1498934    3.9368879 
C     0.5035912    0.0489258    2.7905875 
C     0.9578889   -1.3662667    4.8369370 
C     1.6681988   -1.4210079    6.2111281 
C     1.2563042   -2.6792525    4.0730512 
C    -0.5624689   -1.2840705    5.1582419 
H     3.2509960   -4.5351280   -5.8395705 
H     2.0316494   -4.6197191   -4.5386821 
H     1.5324273   -4.2177166   -6.1974678 
H     4.1059891   -2.2971665   -6.6482600 
H     2.4735579   -1.9007050   -7.2449687 
H     3.3085534   -0.7793553   -6.1540872 
H     3.8240591   -1.5122047   -3.6423417 
H     4.6509599   -2.8493191   -4.5094952 
H     3.5044472   -3.2111038   -3.2071164 
H     1.8465257   -2.3879906   -2.5350674 
H     0.8112269   -3.0876468   -7.6824806 
H    -0.5570235   -2.1509214   -8.3620615 
H    -0.7773894   -3.0723134   -6.8283227 
H    -3.3045310    1.8433436   -5.2557607 
H    -2.0952760    1.7881734   -3.9417351 
H    -3.3740594    0.5372447   -4.0554961 
H    -2.1197643   -1.0235934   -7.2743238 
H    -3.2341815   -1.2695881   -5.8982722 
H    -3.4287091    0.1413143   -6.9768775 
H    -0.3096810    0.8274613   -7.1467718 
H    -1.6234944    2.0298486   -6.9483437 
H    -0.2987382    1.9386955   -5.7472720 
H    -1.7519379   -0.1062650   -2.8398006 
H     0.2725404   -4.0081138   -2.2277995 
H     0.0299411   -5.2110522   -3.6952217 
H    -0.1611894   -6.9137309   -4.1572134 
H    -1.4912722   -6.0534211   -3.3218938 
H     2.1461183   -5.7697675   -2.3522498 
H     1.9908401   -7.4474331   -2.9544284 
H     2.1743736   -7.1328694   -1.2056803 
H    -1.5142108   -8.0278952   -1.5863432 
H    -0.2987220   -8.6639558   -2.7319006 
H     0.0452586   -8.6472466   -0.9913527 
H     0.4727584   -8.6889628    1.8163528 
H     1.3406466   -7.8904038    0.4598563 
H     1.1253407   -7.0199279    2.0193415 
H    -1.3926441   -2.8076441    1.5348001 
H    -0.0799648   -5.3948055    3.7884216 
H    -0.7264271   -7.0068288    3.3490256 
H    -1.5277702   -6.0438490    4.6081653 
H    -3.1269724   -4.3629941    4.1256835 
H    -1.7714494   -3.3503264    3.5798356 
H    -3.2280749   -3.5316943    2.5556612 
H    -2.7196648   -7.2110722    1.7805929 
H    -3.8168591   -5.8124839    1.5657306 
H    -3.6295144   -6.5553342    3.1753766 
H     1.7675289   -2.9582594    0.8353456 
H     4.0328133   -2.4213246    1.6165322 
H     5.3798342    3.0167495   -0.1989267 
H     4.6433586    2.5085912    1.3599892 
H     6.8423935    1.3968425    1.1040557 
H     6.3729813    0.7579555   -0.5027526 
H     6.4995322   -1.8822102    0.9377067 
H     5.7864786   -1.6266204    2.5640830 
H     7.1767894   -0.6412074    2.0474827 
H     4.3533239    2.2536289   -3.4850058 
H     4.4940313    0.6631339   -4.3181691 
H     2.4663898    1.1405680   -5.6678487 
H     3.6084431    2.5076359   -5.8440574 
H     2.3005984    4.2552978   -6.1629273 
H     1.4570195    4.9550702   -4.7502446 
H     0.5695074    3.8951272   -5.8948399 
H    -1.3002720    3.4368238   -1.4145081 
H    -0.2957034    4.0025854   -3.5794323 
H    -0.3783761    4.5259677    0.1739112 
H    -1.6861282    8.3394705    2.7940263 
H    -0.1696203    7.5605563    3.3058037 
H    -0.1578997    8.8147245    2.0319682 
H     0.9414156    7.7365438    0.4308484 
H     1.2700684    6.2945280    1.4321615 
H     0.5782333    6.1235127   -0.2073695 
H    -2.8231579    7.5583161    0.5603775 
H    -1.8466236    6.6613414   -0.6265154 
H    -1.4199374    8.3508041   -0.2073913 
H    -3.8811159    7.8453102    4.0207614 
H    -4.6219367    6.3529041    3.3441700 
H    -3.5974667    7.3957907    2.3016440 
H    -2.1858529    1.8397919    2.9782885 
H    -4.8107400    3.8592816    6.0295254 
H    -4.3509156    5.3414230    5.1669694 
H    -5.0524616    3.9599119    4.2646383 
H    -2.0861128    1.6269352    5.0770186 
H    -3.7685020    1.6345304    4.4611615 
H    -3.4418966    1.9684705    6.1795484 
H    -1.8869151    5.3342063    5.8168364 
H    -2.3676558    4.0446663    6.9629003 
H    -0.9902076    3.7827066    5.8521054 
H     1.5303785    3.1338710    1.7925602 
H     3.0420747    4.5092150    5.8649995 
H     1.4595813    3.8529026    5.3480377 
H     2.6622515    2.7814096    6.1368472 
H     3.3492274    4.3679431    2.1246676 
H     3.4937244    5.3816114    3.5840138 
H     1.8907051    4.8107652    3.0609286 
H     5.1119048    2.6314866    3.2901566 
H     4.8730311    2.3489643    5.0389571 
H     5.1655245    3.9970770    4.4358877 
H     5.0279896   -0.2451600    5.6159523 
H     4.8277948    0.2563865    3.8897246 
H     3.9921843   -1.2109968    4.5009343 
H    -0.2494583   -0.6988328    2.5174537 
H     2.7385977   -1.6605845    6.1329625 
H     1.5662304   -0.4746677    6.7642531 
H     1.1979206   -2.2238110    6.8072565 
H     0.6870360   -2.7474305    3.1307925 
H     0.9903003   -3.5496968    4.6984347 
H     2.3281736   -2.7522795    3.8198745 
H    -0.8684423   -2.1618432    5.7542445 
H    -0.7814165   -0.3761933    5.7461265 
H    -1.1904003   -1.2576828    4.2528278 
