227
Energy =
C    -4.0390645    0.7380679    0.3331169 
C    -4.1119959   -0.2566189   -0.6903159 
C    -3.7599524   -1.6023514   -0.4386453 
H    -4.2998348    0.0612345   -1.7240100 
Pd   -2.0343555   -0.1744981    0.0133092 
P    -0.2370264   -1.4771906   -0.7562242 
P    -0.6272632    1.5420563    0.6937253 
H    -4.2301980    0.4191758    1.3684537 
H    -3.7963464   -1.9392477    0.6087996 
C    -4.6301849    4.9353277   -0.4371923 
C    -4.1075009    4.1045096   -1.4423127 
C    -3.9180594    2.7405758   -1.1998185 
C    -4.2478366    2.1722974    0.0530212 
C    -4.7679207    3.0204632    1.0532360 
C    -4.9599568    4.3854574    0.8093094 
H    -4.7757272    6.0037389   -0.6255877 
H    -3.8395647    4.5241068   -2.4181911 
H    -3.4784322    2.1121163   -1.9809731 
H    -5.0227733    2.6016680    2.0322765 
H    -5.3682810    5.0225275    1.5993555 
C    -3.8618038   -4.8715023   -3.2327233 
C    -3.8318213   -5.1041328   -1.8496563 
C    -3.7843863   -4.0246589   -0.9622754 
C    -3.7643320   -2.6915992   -1.4294898 
C    -3.7746833   -2.4751226   -2.8266032 
C    -3.8246325   -3.5527258   -3.7154055 
H    -3.9126385   -5.7112616   -3.9334437 
H    -3.8463974   -6.1266731   -1.4582469 
H    -3.7691056   -4.2093475    0.1149331 
H    -3.7438563   -1.4579800   -3.2260607 
H    -3.8380188   -3.3639615   -4.7939724 
C     3.7034242   -2.5397867   -4.0466858 
C     2.5859061   -2.5685545   -5.1272065 
C     2.3250593   -4.0598463   -5.4660433 
C     3.1596335   -1.8322655   -6.3632556 
C     1.2911202   -1.9107598   -4.5721688 
C     1.0932424   -1.9290113   -3.1799476 
C     0.2809992   -1.2702573   -5.3495177 
O     0.3448068   -1.2545829   -6.7307722 
C    -0.0467352   -2.4375208   -7.4404703 
C    -0.7884006   -0.5356119   -4.7497421 
C    -1.7424297    0.3657492   -5.5729198 
C    -2.6566012    1.2018315   -4.6457237 
C    -2.6615855   -0.4725609   -6.4951517 
C    -0.9121120    1.3724208   -6.4102180 
C    -0.9318194   -0.6195060   -3.3559036 
C    -0.0309995   -1.3517898   -2.5738564 
C    -0.4540400   -3.2586823   -0.3593635 
C    -1.0474300   -3.6086745    0.8681509 
C    -1.1833578   -4.9491546    1.2662703 
C    -1.9636800   -5.3209790    2.5538345 
C    -2.5904184   -4.0658407    3.2022764 
C    -3.1232697   -6.2908387    2.1980070 
C    -1.0541512   -5.9872406    3.6187762 
C    -0.6458142   -5.9472666    0.3964891 
O    -0.6301180   -7.2476884    0.8624118 
C     0.6496725   -7.7142842    1.3101907 
C    -0.1954355   -5.6409951   -0.9158955 
C    -0.0855982   -4.2755334   -1.2450475 
C     0.1847887   -6.6658790   -2.0202211 
C    -0.3953213   -8.0862175   -1.8083604 
C    -0.3891403   -6.1785401   -3.3807104 
C     1.7294784   -6.7351779   -2.1429274 
C     1.4545218   -1.0719922   -0.1736922 
C     2.1833241   -1.9902475    0.5984636 
C     3.4695224   -1.6886219    1.0549569 
C     2.0325171    0.1907178   -0.4849833 
C     3.3218851    0.4864726   -0.0088023 
C     4.0709739   -0.4441515    0.7731093 
O     3.8317208    1.7114182   -0.3497969 
C     4.9719934    2.1460426    0.3952031 
C     5.9879873    1.0214998    0.5354347 
N     5.3522486   -0.1044834    1.2129349 
C     6.2317023   -1.1431894    1.7310921 
C     1.3518209    1.2412926   -1.3121809 
C     1.8957378    1.5448296   -2.5729099 
C     1.3723871    2.5916972   -3.3937316 
O     2.9661272    0.7964720   -2.9893181 
C     3.8145127    1.4335863   -3.9500593 
C     2.9868326    1.9840868   -5.1080142 
N     2.0060459    2.9219595   -4.5792583 
C     1.5865470    4.0700907   -5.3670734 
C     0.2209716    1.9768136   -0.8584596 
C    -0.3625936    2.9366966   -1.7097517 
C     0.2091752    3.2541427   -2.9422644 
C    -1.3168735    3.0712957    1.4481774 
C    -2.0016258    2.8666037    2.6579349 
C    -2.3886092    3.9317285    3.4797929 
C    -2.9752651    3.6466935    4.8849358 
C    -2.0078061    4.2368455    5.9461454 
C    -4.3911078    4.2453666    5.0794643 
C    -3.0851372    2.1260025    5.1466842 
C    -2.1238673    5.2558540    3.0081441 
O    -2.5720055    6.3049164    3.7882104 
C    -3.7274025    7.0082304    3.3201297 
C    -1.3492006    5.4987663    1.8388885 
C    -0.9760630    4.3732941    1.0746223 
C    -0.8407499    6.8828590    1.3407329 
C    -1.7652474    7.3954181    0.2054165 
C    -0.7137431    7.9528487    2.4548800 
C     0.5873272    6.7318350    0.7398305 
C     0.6143626    1.1787217    2.0038002 
C     1.5116885    2.1928656    2.3902860 
C     2.3369895    2.0459789    3.5121850 
C     3.1267534    3.2544873    4.0786685 
C     2.9498142    4.5002089    3.1808189 
C     4.6470921    3.0015165    4.2483728 
C     2.5181210    3.5894002    5.4689605 
C     2.2685805    0.8021637    4.2137562 
O     3.1960313    0.5856317    5.2175358 
C     4.2947582   -0.2295891    4.7926893 
C     1.2772503   -0.1722470    3.9423466 
C     0.4842881    0.0348857    2.7919583 
C     0.9201871   -1.3911687    4.8348559 
C     1.6203034   -1.4534186    6.2139717 
C     1.2200130   -2.7019637    4.0677801 
C    -0.6022225   -1.3059058    5.1453553 
H     4.6545190   -2.8649011   -4.5023539 
H     3.8346046   -1.5284535   -3.6278322 
H     3.4980297   -3.2286155   -3.2093262 
H     3.2496658   -4.5281246   -5.8489904 
H     2.0141572   -4.6111432   -4.5631626 
H     1.5388644   -4.1910886   -6.2244718 
H     2.4960823   -1.8619026   -7.2367866 
H     4.1214793   -2.2953710   -6.6450006 
H     3.3501947   -0.7712058   -6.1299710 
H     1.8493638   -2.3843044   -2.5380195 
H    -0.5462613   -2.1100674   -8.3670159 
H    -0.7438546   -3.0498956   -6.8415879 
H     0.8358929   -3.0443264   -7.7126562 
H    -3.2726826    1.8808105   -5.2597622 
H    -2.0677751    1.8148740   -3.9421418 
H    -3.3522901    0.5707769   -4.0645262 
H    -2.0950433   -0.9890976   -7.2815327 
H    -3.2194969   -1.2262807   -5.9123735 
H    -3.3962778    0.1864319   -6.9915825 
H    -0.2784887    0.8574814   -7.1466765 
H    -1.5854077    2.0667759   -6.9444326 
H    -0.2631578    1.9616705   -5.7417886 
H    -1.7392130   -0.0878859   -2.8466230 
H    -1.4225561   -2.8075595    1.5112524 
H    -3.2688327   -3.5360662    2.5092482 
H    -3.1869120   -4.3694503    4.0792082 
H    -1.8257797   -3.3540237    3.5524024 
H    -3.8393156   -5.8161198    1.5045603 
H    -3.6752497   -6.5607756    3.1160115 
H    -2.7433827   -7.2133820    1.7344304 
H    -0.1360906   -5.3984094    3.7829423 
H    -1.5951093   -6.0505104    4.5798791 
H    -0.7747758   -7.0099863    3.3301650 
H     0.4734740   -8.6901253    1.7873646 
H     1.3531385   -7.8430647    0.4676231 
H     1.0930040   -7.0156594    2.0431600 
H     0.2888903   -4.0032634   -2.2322796 
H    -1.4753898   -8.0475934   -1.5900999 
H     0.0949892   -8.6430609   -0.9984407 
H    -0.2523957   -8.6650690   -2.7379109 
H    -0.1336282   -6.9105743   -4.1663448 
H    -1.4853900   -6.0856083   -3.3305566 
H     0.0146083   -5.2044648   -3.6991046 
H     2.1976025   -7.0979589   -1.2120199 
H     2.1524920   -5.7388719   -2.3630135 
H     2.0189960   -7.4200916   -2.9599942 
H     1.7519909   -2.9668491    0.8346375 
H     4.0142442   -2.4398618    1.6308531 
H     5.3907077    2.9986229   -0.1613563 
H     4.6448386    2.4890327    1.3925830 
H     6.8407029    1.3693572    1.1438889 
H     6.3764122    0.7367383   -0.4668976 
H     6.4874334   -1.9068115    0.9661931 
H     5.7657220   -1.6550143    2.5893399 
H     7.1621315   -0.6721149    2.0845784 
H     4.3795439    2.2468970   -3.4555870 
H     4.5166405    0.6582842   -4.2928409 
H     2.4975701    1.1496252   -5.6506767 
H     3.6469197    2.5117856   -5.8171602 
H     0.6162177    3.9135917   -5.8796177 
H     2.3504029    4.2683209   -6.1349158 
H     1.5002501    4.9655056   -4.7249615 
H    -1.2820318    3.4456169   -1.4108779 
H    -0.2622352    4.0162817   -3.5673956 
H    -2.1976779    1.8382461    2.9723588 
H    -1.0097379    3.7724464    5.8575605 
H    -1.9032236    5.3257835    5.8218361 
H    -2.3922073    4.0342554    6.9621483 
H    -4.8303026    3.8595660    6.0165119 
H    -4.3629133    5.3406948    5.1561366 
H    -5.0637366    3.9609639    4.2505009 
H    -2.1070991    1.6204490    5.0724021 
H    -3.7862585    1.6335950    4.4478829 
H    -3.4677498    1.9629636    6.1686740 
H    -4.6235513    6.3627192    3.3460340 
H    -3.5904770    7.3850945    2.2919237 
H    -3.8710275    7.8566526    4.0059506 
H    -0.3650405    4.5258721    0.1856364 
H    -1.3834434    8.3513838   -0.1960396 
H    -1.8117311    6.6636092   -0.6203285 
H    -2.7966202    7.5632853    0.5577542 
H    -0.1728311    7.5556267    3.3297743 
H    -1.6808364    8.3399689    2.8010638 
H    -0.1426002    8.8099610    2.0563932 
H     0.6091931    6.1170527   -0.1756150 
H     0.9690037    7.7300152    0.4648066 
H     1.2840180    6.2882569    1.4709173 
H     1.5292492    3.1203142    1.8144231 
H     3.4913678    5.3515372    3.6275043 
H     3.3499548    4.3456224    2.1625055 
H     1.8886545    4.7896941    3.0937490 
H     4.8514438    2.3065651    5.0743289 
H     5.1542211    3.9553734    4.4782806 
H     5.0988441    2.5939185    3.3275672 
H     2.6374801    2.7426584    6.1636990 
H     1.4432045    3.8233117    5.3746307 
H     3.0262496    4.4700160    5.9018526 
H     4.9896703   -0.2903954    5.6442116 
H     4.8020742    0.2182536    3.9186800 
H     3.9564340   -1.2477185    4.5195664 
H    -0.2698545   -0.7087276    2.5106419 
H     2.6904144   -1.6963578    6.1427629 
H     1.5175158   -0.5087454    6.7698164 
H     1.1429165   -2.2567521    6.8037097 
H     0.6554334   -2.7655456    3.1223509 
H     0.9489054   -3.5740366    4.6886950 
H     2.2930461   -2.7764369    3.8200525 
H    -0.9149475   -2.1850509    5.7358107 
H    -0.8231477   -0.3995809    5.7348931 
H    -1.2233513   -1.2745200    4.2354138 
