227
Energy =
C    -4.0364546    0.8374712    0.2000645 
C    -4.1034589   -0.1803592   -0.8018016 
C    -3.7845047   -1.5268009   -0.5140109 
H    -4.2580498    0.1183827   -1.8466619 
Pd   -2.0432591   -0.1236751   -0.0475026 
P    -0.2544334   -1.4561883   -0.7843524 
P    -0.6242640    1.5682098    0.6614787 
H    -4.2689747    0.5512791    1.2363249 
H    -3.8492216   -1.8407114    0.5392766 
C    -4.5141965    5.0210810   -0.7217599 
C    -4.9019794    4.5177002    0.5282545 
C    -4.7464334    3.1581602    0.8233719 
C    -4.2043724    2.2680284   -0.1279740 
C    -3.8167736    2.7895469   -1.3841672 
C    -3.9709655    4.1479846   -1.6784323 
H    -4.6347275    6.0851150   -0.9498721 
H    -5.3308401    5.1870911    1.2793678 
H    -5.0500342    2.7776459    1.8029257 
H    -3.3582637    2.1289766   -2.1264018 
H    -3.6579715    4.5286923   -2.6568175 
C    -3.8501327   -4.8529083   -3.2408875 
C    -3.8467170   -5.0569887   -1.8529992 
C    -3.8128677   -3.9596071   -0.9872152 
C    -3.7801432   -2.6365133   -1.4816124 
C    -3.7654155   -2.4489468   -2.8829227 
C    -3.8013525   -3.5445382   -3.7500381 
H    -3.8897269   -5.7068418   -3.9250020 
H    -3.8710254   -6.0712298   -1.4410416 
H    -3.8171304   -4.1223293    0.0937346 
H    -3.7258853   -1.4404021   -3.3028544 
H    -3.7946614   -3.3779878   -4.8323504 
C     3.7104096   -2.5945576   -4.0118560 
C     2.6056566   -2.6354731   -5.1052498 
C     2.3397609   -4.1304845   -5.4229132 
C     3.1976684   -1.9216141   -6.3459322 
C     1.3089982   -1.9610797   -4.5760014 
C     1.0923811   -1.9606226   -3.1866230 
C     0.3168365   -1.3188380   -5.3741998 
O     0.3953515   -1.3261849   -6.7546017 
C    -0.0009956   -2.5170780   -7.4480812 
C    -0.7481903   -0.5599500   -4.7975664 
C    -1.6779819    0.3432935   -5.6459563 
C    -2.5828951    1.2134837   -4.7420958 
C    -2.6045146   -0.4970430   -6.5589455 
C    -0.8248197    1.3199224   -6.4959364 
C    -0.9104910   -0.6238389   -3.4045334 
C    -0.0313427   -1.3607756   -2.6020359 
C    -0.4910975   -3.2262309   -0.3545891 
C    -0.1166087   -4.2678764   -1.2081829 
C    -0.2325143   -5.6232889   -0.8407629 
C     0.1620863   -6.6803250   -1.9093162 
C    -0.3987282   -6.2366158   -3.2899514 
C     1.7082499   -6.7479001   -2.0135378 
C    -0.4149802   -8.0959093   -1.6604800 
C    -0.6998390   -5.8909585    0.4744133 
O    -0.6907768   -7.1773236    0.9782210 
C     0.5828651   -7.6274122    1.4592722 
C    -1.2462068   -4.8675430    1.3086106 
C    -1.0990804   -3.5395988    0.8754158 
C    -2.0485732   -5.1988892    2.5935149 
C    -3.2033868   -6.1772125    2.2457036 
C    -1.1595230   -5.8324545    3.6946582 
C    -2.6847211   -3.9235257    3.1918606 
C     1.4378481   -1.0620358   -0.1985886 
C     2.1621011   -1.9871932    0.5695655 
C     3.4531469   -1.6973883    1.0196043 
C     2.0246108    0.1955446   -0.5127762 
C     3.3184187    0.4801125   -0.0414815 
C     4.0634059   -0.4577942    0.7358026 
O     3.8377844    1.7013437   -0.3820847 
C     4.9842925    2.1237085    0.3607462 
C     5.9923149    0.9908280    0.4911076 
N     5.3493153   -0.1300483    1.1693219 
C     6.2167787   -1.1722383    1.6992969 
C     1.3520612    1.2536551   -1.3380165 
C     1.8939647    1.5448330   -2.6020605 
C     1.3869479    2.6010832   -3.4214888 
O     2.9468744    0.7743807   -3.0232228 
C     3.7976333    1.3899223   -3.9957275 
C     2.9679594    1.9442272   -5.1501817 
N     2.0108000    2.9055597   -4.6191375 
C     1.6067419    4.0578763   -5.4091839 
C     0.2409079    2.0155004   -0.8766570 
C    -0.3147768    3.0016020   -1.7154950 
C     0.2533914    3.3027302   -2.9539280 
C    -1.3228852    3.0840712    1.4330249 
C    -2.0606152    2.8527612    2.6012463 
C    -2.4279078    3.8876407    3.4791157 
C    -2.9847798    3.4660601    4.8687840 
C    -2.0600291    2.3417003    5.4225356 
C    -2.9764558    4.5810609    5.9436411 
C    -4.4174458    2.8948370    4.7251523 
C    -2.1635150    5.2165430    3.0398949 
O    -2.6462781    6.2952952    3.7547404 
C    -4.0490981    6.5496754    3.6283191 
C    -1.3410152    5.4874244    1.9064612 
C    -0.9220749    4.3935488    1.1301409 
C    -0.8486227    6.9146058    1.5605134 
C    -0.1012881    7.5205144    2.7783430 
C     0.1405385    6.8936218    0.3711808 
C    -2.0299846    7.8339331    1.1588228 
C     0.6230358    1.2029109    1.9648801 
C     0.5039518    0.0748537    2.7762883 
C     1.3173934   -0.1100270    3.9172634 
C     0.9948173   -1.3305919    4.8223897 
C    -0.5209245   -1.2735804    5.1664305 
C     1.7237951   -1.3808468    6.1870719 
C     1.2982288   -2.6386935    4.0512714 
C     2.3026184    0.8783054    4.1632984 
O     3.2368085    0.6907833    5.1669835 
C     4.3524621   -0.1029334    4.7451864 
C     2.3608601    2.1065253    3.4329860 
C     1.5278528    2.2220525    2.3146710 
C     3.1305715    3.3437116    3.9649368 
C     2.4731982    3.7281287    5.3200035 
C     2.9759919    4.5481635    3.0069126 
C     4.6467787    3.1164564    4.1939906 
H     4.6652507   -2.9316716   -4.4506491 
H     3.8419006   -1.5771068   -3.6079542 
H     3.4916194   -3.2684016   -3.1657684 
H     3.2667929   -4.6117090   -5.7833152 
H     2.0104097   -4.6642575   -4.5158261 
H     1.5647204   -4.2686471   -6.1916346 
H     2.5460055   -1.9654623   -7.2277761 
H     4.1621630   -2.3914553   -6.6067836 
H     3.3870134   -0.8568293   -6.1287809 
H     1.8346591   -2.4171482   -2.5296145 
H    -0.4895721   -2.2005903   -8.3842435 
H    -0.7087684   -3.1130610   -6.8451498 
H     0.8783178   -3.1363860   -7.7023630 
H    -3.1820295    1.8922227   -5.3729610 
H    -1.9868633    1.8289876   -4.0463584 
H    -3.2944302    0.6067659   -4.1543132 
H    -2.0401605   -1.0424932   -7.3272686 
H    -3.1832753   -1.2263112   -5.9653913 
H    -3.3208482    0.1648904   -7.0777946 
H    -0.1934599    0.7813351   -7.2171019 
H    -1.4833449    2.0135950   -7.0490795 
H    -0.1725768    1.9130808   -5.8341005 
H    -1.7157808   -0.0731681   -2.9123316 
H     0.2702178   -4.0237831   -2.1981635 
H     0.0043822   -5.2705191   -3.6326994 
H    -0.1315542   -6.9906228   -4.0505355 
H    -1.4959139   -6.1475857   -3.2547447 
H     2.1304666   -5.7579241   -2.2620202 
H     2.0085181   -7.4583096   -2.8045447 
H     2.1674554   -7.0783556   -1.0662377 
H    -1.4973582   -8.0553937   -1.4544908 
H    -0.2601080   -8.7021096   -2.5705143 
H     0.0693634   -8.6258489   -0.8291954 
H     0.4023229   -8.5921461    1.9569465 
H     1.3014340   -7.7732876    0.6322572 
H     1.0106771   -6.9091690    2.1825388 
H    -1.4764102   -2.7189047    1.4920344 
H    -2.8164453   -7.1151288    1.8204095 
H    -3.9029551   -5.7236335    1.5218331 
H    -3.7752992   -6.4159248    3.1601507 
H    -1.7213417   -5.8745305    4.6449273 
H    -0.8680306   -6.8605215    3.4386012 
H    -0.2490052   -5.2334194    3.8637961 
H    -3.3499184   -3.4149048    2.4707369 
H    -1.9252135   -3.2016969    3.5335858 
H    -3.2968582   -4.1994271    4.0671666 
H     1.7233343   -2.9599896    0.8074233 
H     3.9947203   -2.4538614    1.5915445 
H     5.4060654    2.9771015   -0.1921808 
H     4.6638363    2.4614083    1.3621211 
H     6.8512237    1.3297720    1.0958453 
H     6.3726915    0.7056012   -0.5141326 
H     6.4608562   -1.9499366    0.9448631 
H     5.7462220   -1.6657144    2.5660136 
H     7.1543102   -0.7083236    2.0433568 
H     4.3799920    2.1980062   -3.5128685 
H     4.4841464    0.6006523   -4.3380424 
H     2.4576999    1.1130997   -5.6787009 
H     3.6293454    2.4527941   -5.8719363 
H     0.6169376    3.9264054   -5.8905732 
H     2.3530481    4.2206694   -6.2020221 
H     1.5684903    4.9640520   -4.7773356 
H    -1.2097607    3.5440611   -1.4023257 
H    -0.1972078    4.0848287   -3.5696317 
H    -2.2954280    1.8162876    2.8686546 
H    -2.0703617    1.4360943    4.7956547 
H    -1.0148069    2.6899310    5.4922568 
H    -2.3975826    2.0484148    6.4320655 
H    -3.1699911    4.1154556    6.9261852 
H    -2.0006908    5.0906134    5.9898170 
H    -3.7541902    5.3416461    5.7887357 
H    -4.4338631    2.0245094    4.0447241 
H    -5.1183893    3.6499518    4.3281727 
H    -4.7982384    2.5624021    5.7072466 
H    -4.6498701    5.6466635    3.8385056 
H    -4.2923622    6.9117160    2.6124535 
H    -4.2912859    7.3320547    4.3632071 
H    -0.2584378    4.5633330    0.2828374 
H     0.2666550    8.5314898    2.5263569 
H    -0.7623791    7.5967211    3.6543827 
H     0.7698524    6.8982613    3.0482297 
H    -0.3302926    6.5228338   -0.5567693 
H     1.0294370    6.2731206    0.5825500 
H     0.4916565    7.9218852    0.1783196 
H    -2.6845993    8.0483459    2.0149521 
H    -1.6417508    8.7990714    0.7870719 
H    -2.6316805    7.3727363    0.3560020 
H    -0.2511937   -0.6762014    2.5189094 
H    -0.8077742   -2.1701942    5.7437446 
H    -0.7418502   -0.3839676    5.7797342 
H    -1.1610961   -1.2330897    4.2701840 
H     2.7954160   -1.6096256    6.0945792 
H     1.2697108   -2.1900832    6.7870921 
H     1.6193098   -0.4369754    6.7437287 
H     2.3642873   -2.6920926    3.7708970 
H     0.7050678   -2.7183536    3.1244949 
H     1.0644744   -3.5130668    4.6842776 
H     5.0545330   -0.1361604    5.5923350 
H     4.8432587    0.3430587    3.8608856 
H     4.0360297   -1.1322793    4.4881138 
H     1.5442197    3.1321511    1.7123613 
H     1.4000485    3.9487321    5.1806788 
H     2.5746947    2.9080365    6.0494552 
H     2.9603080    4.6281754    5.7369034 
H     3.4116147    4.3486963    2.0112549 
H     3.4990553    5.4212624    3.4330051 
H     1.9186256    4.8304865    2.8680616 
H     5.1321824    4.0841971    4.4123351 
H     4.8325360    2.4485489    5.0460712 
H     5.1357552    2.6913948    3.3002498 
