227
Energy =
C     3.6917168   -0.5339876   -1.0356744 
C     3.9500581    0.4227724   -0.0251623 
C     3.6705926    0.1268403    1.3458872 
H     4.2029648    1.4507744   -0.3133402 
Pd    1.8073705   -0.0356934    0.1276330 
P     0.1694301   -0.3192577    1.7573151 
P     0.2792142    0.0793362   -1.6212051 
H     3.6184993   -1.5845983   -0.7127538 
H     3.7799591   -0.9184637    1.6658636 
C     4.0091098   -0.0930538   -5.3004846 
C     3.5845305   -1.3029546   -4.7307894 
C     3.5116065   -1.4330476   -3.3407221 
C     3.8391358   -0.3532961   -2.4870118 
C     4.2699133    0.8564720   -3.0762768 
C     4.3590752    0.9796885   -4.4654128 
H     4.0758311    0.0111165   -6.3881530 
H     3.3139266   -2.1500312   -5.3701845 
H     3.1821407   -2.3802210   -2.9035994 
H     4.5413755    1.7081820   -2.4462736 
H     4.7054715    1.9212868   -4.8997087 
C     3.9389257    2.9891028    4.5601640 
C     3.7421864    3.4341079    3.2426542 
C     3.6388064    2.5149219    2.1938350 
C     3.7525666    1.1246525    2.4307775 
C     3.9482737    0.6931523    3.7616222 
C     4.0374550    1.6135592    4.8122956 
H     4.0145017    3.7096286    5.3811304 
H     3.6622042    4.5057114    3.0333879 
H     3.4541516    2.8814683    1.1792081 
H     4.0265009   -0.3782414    3.9686233 
H     4.1906344    1.2532439    5.8337752 
C     0.0647857   -6.2254473   -1.7306681 
C     1.1356267   -5.1492503   -2.0417727 
C     2.2121744   -5.7218390   -2.9970819 
C     1.8383290   -4.8088465   -0.7045533 
C     0.4498433   -3.8971155   -2.6422637 
C     0.6297390   -2.6507814   -2.0278206 
C    -0.4024097   -3.9454564   -3.7886894 
O    -0.4966138   -5.1626310   -4.4389522 
C     0.2028501   -5.3212398   -5.6807260 
C    -1.1937941   -2.8285052   -4.1924748 
C    -2.2508564   -2.8293860   -5.3314947 
C    -3.0118951   -4.1711751   -5.4719619 
C    -1.5618196   -2.4580353   -6.6722166 
C    -3.3341020   -1.7480339   -5.0592935 
C    -0.9831525   -1.6200055   -3.5014042 
C    -0.0347055   -1.5037489   -2.4781428 
C     0.8781252    1.3150782   -2.8441416 
C     1.5405677    2.4559691   -2.3525723 
C     1.9685958    3.4886150   -3.2026496 
C     2.6574078    4.7483383   -2.6211708 
C     1.7284039    5.9688032   -2.8551408 
C     2.8988026    4.6054980   -1.1019126 
C     4.0428116    5.0228036   -3.2618166 
C     1.6774539    3.3560070   -4.5953255 
O     2.1287846    4.3503231   -5.4403061 
C     3.2011965    4.0012256   -6.3240810 
C     0.8944273    2.2831817   -5.1040732 
C     0.5830173    1.2414010   -4.2074007 
C     0.2658305    2.1777151   -6.5240218 
C     0.9787980    1.0665129   -7.3348209 
C    -1.2312619    1.7834288   -6.3516149 
C     0.2483922    3.4922200   -7.3429970 
C    -1.3961801    0.6689277   -1.1849294 
C    -1.8734274    1.9153159   -1.6295744 
C    -3.1640502    2.3557779   -1.3233214 
C    -2.2474082   -0.1625197   -0.4022316 
C    -3.5426251    0.2891935   -0.1127891 
C    -4.0345519    1.5530719   -0.5519082 
O    -4.3775104   -0.5211077    0.6242716 
C    -5.7324330   -0.4404347    0.1589239 
C    -6.2683598    0.9738355    0.3373830 
N    -5.3128562    1.9441935   -0.1971647 
C    -5.7904023    3.2881714   -0.4836314 
C    -1.8698282   -1.5070847    0.1464419 
C    -2.5699067   -2.6256197   -0.3406193 
C    -2.4326578   -3.9232251    0.2442344 
O    -3.4150349   -2.4174740   -1.4035054 
C    -4.3903557   -3.4397375   -1.6370025 
C    -3.7432416   -4.8192078   -1.5853301 
N    -3.1473101   -4.9918018   -0.2690855 
C    -3.1217888   -6.2974094    0.3709269 
C    -0.9630776   -1.6758051    1.2362012 
C    -0.8593629   -2.9460916    1.8346665 
C    -1.5777836   -4.0439636    1.3594197 
C     0.9179348   -0.9292403    3.3173802 
C     0.5947384   -0.4013084    4.5677707 
C     1.1511408   -0.9053238    5.7630898 
C     0.5622846   -0.3429908    7.0873310 
C     1.0461761    1.1144187    7.2986487 
C    -0.9894688   -0.3319087    6.9538227 
C     0.8652057   -1.1845355    8.3512983 
C     2.1447975   -1.9123243    5.6358615 
O     2.8528038   -2.3471315    6.7402613 
C     3.8868710   -1.4601797    7.1839452 
C     2.4299825   -2.5439804    4.3837947 
C     1.8165601   -2.0104082    3.2431120 
C     3.3159897   -3.8089971    4.2689128 
C     2.7164595   -4.9234277    5.1673353 
C     3.3401381   -4.3427721    2.8170019 
C     4.7847028   -3.5361274    4.6816863 
C    -0.8571365    1.1115704    2.2303157 
C    -0.4398354    2.4066269    1.9070732 
C    -1.1256568    3.5453589    2.3808530 
C    -0.7123497    4.9237950    1.7971276 
C    -0.7934679    4.7994118    0.2495647 
C     0.7422919    5.2538366    2.2082130 
C    -1.6244250    6.1183370    2.1658835 
C    -2.1814495    3.3111974    3.2998320 
O    -2.7273707    4.3643148    4.0098070 
C    -1.9171045    4.7867351    5.1157931 
C    -2.7380882    2.0130509    3.5096508 
C    -2.0462335    0.9236394    2.9604746 
C    -4.0967772    1.8159496    4.2253310 
C    -4.0433528    2.1938964    5.7272699 
C    -4.5564712    0.3423781    4.1297541 
C    -5.1526500    2.7004802    3.5093503 
H     0.5383702   -7.1062847   -1.2611183 
H    -0.6782365   -5.8148341   -1.0275778 
H    -0.4562445   -6.5493046   -2.6438882 
H     2.7710883   -6.5281747   -2.4893574 
H     1.7698221   -6.1495371   -3.9069347 
H     2.9360825   -4.9408847   -3.2914383 
H     2.6779200   -4.1028722   -0.8390681 
H     2.2579910   -5.7329210   -0.2715385 
H     1.1348249   -4.3797650    0.0299796 
H     1.2837278   -2.5519291   -1.1585641 
H     0.5346422   -6.3708751   -5.7331091 
H     1.0809482   -4.6532598   -5.7325004 
H    -0.4633728   -5.1193771   -6.5391825 
H    -3.7921187   -4.0627484   -6.2455202 
H    -3.5104831   -4.4378157   -4.5247227 
H    -2.3681679   -5.0142686   -5.7516377 
H    -1.0715576   -1.4724377   -6.5941525 
H    -0.7943117   -3.1900624   -6.9658713 
H    -2.3103134   -2.4050548   -7.4833823 
H    -3.7465633   -1.8369094   -4.0406671 
H    -2.9495784   -0.7215238   -5.1777670 
H    -4.1552125   -1.8672864   -5.7865099 
H    -1.5917618   -0.7482066   -3.7471515 
H     1.7371151    2.5139366   -1.2776894 
H     0.7532755    5.8138336   -2.3618662 
H     2.1871179    6.8820347   -2.4345959 
H     1.5573362    6.1272647   -3.9315704 
H     1.9671312    4.4475966   -0.5371942 
H     3.3634190    5.5290514   -0.7169331 
H     3.5888360    3.7711154   -0.8817586 
H     3.9501893    5.3936224   -4.2910615 
H     4.5706716    5.7965474   -2.6770005 
H     4.6722547    4.1149641   -3.2617573 
H     4.1645188    3.9852171   -5.7825779 
H     3.0395870    3.0152281   -6.7927183 
H     3.2372231    4.7809194   -7.0998035 
H     0.0568490    0.3637635   -4.5859845 
H     0.9674578    0.1043567   -6.7933296 
H     2.0334612    1.3261019   -7.5301964 
H     0.4781072    0.9217441   -8.3088240 
H    -1.3606647    0.7983913   -5.8768416 
H    -1.7649157    2.5297346   -5.7376657 
H    -1.7174251    1.7363620   -7.3415344 
H     1.2329657    3.7690780   -7.7430790 
H    -0.1332148    4.3367289   -6.7472727 
H    -0.4209173    3.3502495   -8.2097023 
H    -1.2320981    2.5540418   -2.2430871 
H    -3.4984559    3.3246789   -1.7014360 
H    -5.7620819   -0.7439641   -0.9055159 
H    -6.3129971   -1.1583103    0.7578985 
H    -6.4638779    1.1727336    1.4086429 
H    -7.2325458    1.0641600   -0.2007875 
H    -6.0043020    3.4423238   -1.5613367 
H    -5.0483685    4.0396026   -0.1605788 
H    -6.7174487    3.4632112    0.0841901 
H    -5.1906899   -3.3694445   -0.8753611 
H    -4.8141013   -3.2271852   -2.6303838 
H    -2.9866946   -4.9115400   -2.3915051 
H    -4.5102846   -5.5955047   -1.7435134 
H    -2.1341962   -6.7947722    0.2936343 
H    -3.8697272   -6.9424896   -0.1151297 
H    -3.3837788   -6.2093943    1.4410812 
H    -0.2095581   -3.0930823    2.6994832 
H    -1.4592213   -5.0095715    1.8563423 
H    -0.1273293    0.4162022    4.6213917 
H     2.1404355    1.1608610    7.4330217 
H     0.7903517    1.7514183    6.4333949 
H     0.5738825    1.5460478    8.1993659 
H    -1.4376484    0.0334728    7.8943211 
H    -1.3433230    0.3253254    6.1432627 
H    -1.3738093   -1.3487554    6.7607365 
H     0.6366082   -2.2505832    8.1916279 
H     0.2294370   -0.8147474    9.1751371 
H     1.9081070   -1.1051950    8.6881342 
H     4.6362277   -1.2931215    6.3881812 
H     4.3672236   -1.9499323    8.0442293 
H     3.4775002   -0.4839847    7.5003286 
H     2.0312955   -2.4414037    2.2619322 
H     3.3248035   -5.8420526    5.0837508 
H     2.6953838   -4.6121626    6.2228410 
H     1.6862057   -5.1639116    4.8495323 
H     3.8036724   -3.6260630    2.1145624 
H     2.3290475   -4.5856029    2.4468511 
H     3.9385420   -5.2691778    2.7829794 
H     4.8776228   -3.3599715    5.7621188 
H     5.4087089   -4.4131575    4.4338216 
H     5.1961647   -2.6654603    4.1398156 
H     0.4378575    2.5251113    1.2614106 
H    -0.4562208    5.7408927   -0.2184498 
H    -0.1722912    3.9807391   -0.1471472 
H    -1.8317644    4.6037036   -0.0658871 
H     0.8356577    5.3522613    3.3039053 
H     1.0655656    6.2046400    1.7476046 
H     1.4389112    4.4633756    1.8869243 
H    -1.5218632    6.4335468    3.2142165 
H    -2.6864346    5.8969980    1.9749915 
H    -1.3315995    6.9786734    1.5375334 
H    -1.7876783    3.9659778    5.8463160 
H    -2.4497584    5.6248135    5.5899503 
H    -0.9184542    5.1236115    4.7810366 
H    -2.4150406   -0.0944077    3.1048540 
H    -3.2275902    1.6604028    6.2443956 
H    -3.9096128    3.2755131    5.8701476 
H    -4.9939661    1.9084722    6.2124741 
H    -4.6084375   -0.0063775    3.0843195 
H    -5.5614529    0.2488090    4.5770581 
H    -3.8840644   -0.3338665    4.6876416 
H    -6.1585459    2.4979584    3.9198315 
H    -4.9287224    3.7695674    3.6448222 
H    -5.1606188    2.4843963    2.4279331 
