227
Energy =
C    -4.0031622    0.8711071    0.0906158 
C    -4.0397713   -0.0838882   -0.9721767 
C    -3.7415958   -1.4455016   -0.7363807 
H    -4.1564245    0.2700343   -2.0044103 
Pd   -1.9996903   -0.0837720   -0.1553747 
P    -0.2144660   -1.4229832   -0.8906648 
P    -0.5763357    1.5551776    0.6576147 
H    -4.2489332    0.5109983    1.1006404 
H    -3.8487233   -1.7989450    0.3002559 
C    -4.4951410    5.1143427   -0.4684636 
C    -4.0235699    4.3200426   -1.5272691 
C    -3.8560162    2.9417679   -1.3564173 
C    -4.1731427    2.3207796   -0.1253395 
C    -4.6457594    3.1344952    0.9275138 
C    -4.7976808    4.5160306    0.7631594 
H    -4.6218770    6.1935163   -0.6024146 
H    -3.7751339    4.7802340   -2.4898943 
H    -3.4522881    2.3452774   -2.1808314 
H    -4.8948445    2.6727780    1.8875389 
H    -5.1517270    5.1256500    1.6006833 
C    -3.5651565   -4.6874089   -3.5593283 
C    -3.5669323   -3.3639531   -4.0292179 
C    -3.6320511   -2.2935481   -3.1322674 
C    -3.6888311   -2.5221251   -1.7385300 
C    -3.6925573   -3.8604780   -1.2835773 
C    -3.6332818   -4.9313792   -2.1796384 
H    -3.5132037   -5.5219479   -4.2662546 
H    -3.5175112   -3.1649208   -5.1048571 
H    -3.6312312   -1.2726945   -3.5224018 
H    -3.7393892   -4.0570127   -0.2093448 
H    -3.6375619   -5.9568843   -1.7960189 
C     2.9420565   -2.3209533   -6.6261036 
C     2.4039979   -2.8942567   -5.2906545 
C     3.5843052   -2.8377409   -4.2789508 
C     2.0311352   -4.3897072   -5.4680981 
C     1.1870688   -2.1095281   -4.7251300 
C     1.0341557   -2.0578013   -3.3272372 
C     0.2101650   -1.4146851   -5.4982536 
O     0.2128926   -1.4830576   -6.8786722 
C    -0.3519211   -2.6599102   -7.4730441 
C    -0.7546666   -0.5475470   -4.8998431 
C    -1.6114963    0.4388672   -5.7334567 
C    -2.4211242    1.3832353   -4.8136712 
C    -2.6270612   -0.2934611   -6.6453811 
C    -0.6724550    1.3252708   -6.5941733 
C    -0.8658527   -0.5742032   -3.5002502 
C    -0.0234569   -1.3717138   -2.7146364 
C    -0.4770969   -3.1670132   -0.3759512 
C    -1.1851700   -3.3959495    0.8200746 
C    -1.3557818   -4.6864414    1.3452439 
C    -2.2979686   -4.9398522    2.5505753 
C    -3.0658802   -3.6535182    2.9331146 
C    -3.3536423   -6.0080424    2.1541369 
C    -1.5355056   -5.4197709    3.8108423 
C    -0.7038310   -5.7562710    0.6591457 
O    -0.6662224   -6.9877500    1.2842887 
C     0.5896871   -7.2760780    1.9147453 
C    -0.1401754   -5.5893991   -0.6335148 
C    -0.0230911   -4.2671958   -1.1092031 
C     0.3475620   -6.7175366   -1.5842140 
C     1.8879525   -6.6181906   -1.7372297 
C    -0.0286595   -8.1592989   -1.1653714 
C    -0.3164226   -6.5005658   -2.9737998 
C     1.4863265   -1.0325501   -0.3293419 
C     2.2335956   -1.9709897    0.4005764 
C     3.5189599   -1.6701962    0.8604116 
C     2.0460817    0.2482045   -0.5940014 
C     3.3258915    0.5496190   -0.0976031 
C     4.0952751   -0.4023974    0.6381803 
O     3.8021742    1.8035491   -0.3678808 
C     4.9352315    2.2222834    0.3964539 
C     5.9778301    1.1155866    0.4715797 
N     5.3693167   -0.0576615    1.0913281 
C     6.2664948   -1.0973496    1.5742221 
C     1.3549184    1.3214118   -1.3834028 
C     1.8552444    1.6304333   -2.6616422 
C     1.3122995    2.6948783   -3.4471874 
O     2.9114565    0.8855428   -3.1119079 
C     3.1641324    0.9711150   -4.5190461 
C     3.1798412    2.4229694   -4.9743123 
N     1.8819752    3.0128312   -4.6748360 
C     1.4980872    4.2349215   -5.3659046 
C     0.2573772    2.0711846   -0.8755734 
C    -0.3373991    3.0602446   -1.6822482 
C     0.1966208    3.3875319   -2.9297106 
C    -1.2890348    3.0147115    1.5060346 
C    -2.0420506    2.7072545    2.6504750 
C    -2.4286293    3.6912724    3.5676316 
C    -3.2393061    3.2944304    4.8260456 
C    -4.5728401    4.0849418    4.8814280 
C    -3.5938391    1.7877573    4.8161861 
C    -2.4097350    3.5504913    6.1111044 
C    -2.0518920    5.0409078    3.2816612 
O    -2.3997711    5.9880567    4.2242836 
C    -1.3648931    6.5819728    5.0185094 
C    -1.4147160    5.4027038    2.0597936 
C    -0.9924261    4.3488481    1.2228875 
C    -1.1639731    6.8540781    1.5655977 
C    -2.3048473    7.8170663    1.9814096 
C     0.2135508    7.3707224    2.0570983 
C    -1.1271174    6.8877664    0.0112669 
C     0.6834918    1.1516986    1.9369119 
C     0.6009162   -0.0235101    2.6834311 
C     1.4101480   -0.2390935    3.8220347 
C     1.1130651   -1.5061288    4.6696980 
C     1.8167460   -1.5840209    6.0462384 
C     1.4732223   -2.7729064    3.8546263 
C    -0.4112467   -1.5068092    4.9793621 
C     2.3579383    0.7682942    4.1297910 
O     3.2915422    0.5611569    5.1302697 
C     4.4320780   -0.1801417    4.6808095 
C     2.3737671    2.0370593    3.4708783 
C     1.5449760    2.1842760    2.3531899 
C     3.0912740    3.2684407    4.0830442 
C     2.8703035    4.5285304    3.2140671 
C     4.6185927    3.0928478    4.2798861 
C     2.4341657    3.5292402    5.4674714 
H     3.8868017   -2.8329158   -6.8801631 
H     2.2495776   -2.4553363   -7.4669551 
H     3.1525734   -1.2417248   -6.5402726 
H     4.4847200   -3.2687246   -4.7489023 
H     3.8107119   -1.8037507   -3.9694320 
H     3.3870973   -3.4259177   -3.3666074 
H     1.7409405   -4.8336379   -4.5012648 
H     2.8977917   -4.9541990   -5.8567553 
H     1.1910705   -4.5322528   -6.1656058 
H     1.7746554   -2.5456208   -2.6906161 
H    -0.7433242   -2.3629407   -8.4590564 
H    -1.1728260   -3.0633836   -6.8534208 
H     0.4150306   -3.4423215   -7.6180095 
H    -2.9616629    2.1182647   -5.4343509 
H    -1.7694730    1.9370828   -4.1168046 
H    -3.1801510    0.8375534   -4.2246497 
H    -2.1289897   -0.8710298   -7.4355779 
H    -3.2680173   -0.9745754   -6.0591508 
H    -3.2834035    0.4459232   -7.1381276 
H    -0.1207059    0.7199914   -7.3288021 
H    -1.2649843    2.0836293   -7.1373450 
H     0.0579418    1.8443357   -5.9506572 
H    -1.6044294    0.0492446   -2.9892022 
H    -1.6262042   -2.5355795    1.3327274 
H    -3.6591858   -3.2616102    2.0877259 
H    -3.7690373   -3.8807829    3.7520939 
H    -2.3941895   -2.8542277    3.2871444 
H    -3.9523700   -5.6708175    1.2895698 
H    -4.0459752   -6.1767098    2.9981467 
H    -2.8754219   -6.9651388    1.8979965 
H    -0.7107162   -4.7322747    4.0601259 
H    -2.2265415   -5.4501058    4.6721084 
H    -1.1295562   -6.4322783    3.6763169 
H     0.8319361   -6.5159904    2.6807788 
H     0.4790819   -8.2618320    2.3908927 
H     1.4133422   -7.3125300    1.1778850 
H     0.4352223   -4.1004396   -2.0854956 
H     2.3958767   -6.7674652   -0.7681919 
H     2.1941066   -5.6316498   -2.1276206 
H     2.2538111   -7.3902261   -2.4375045 
H     0.1974113   -8.8336286   -2.0105373 
H     0.5435430   -8.5226906   -0.2999469 
H    -1.1012086   -8.2478988   -0.9308146 
H    -0.1434397   -5.4939564   -3.3861804 
H    -1.4061947   -6.6481851   -2.9054443 
H     0.0880196   -7.2335222   -3.6938170 
H     1.8159773   -2.9604263    0.6046240 
H     4.0797363   -2.4376683    1.3982435 
H     5.3313264    3.1145384   -0.1123850 
H     4.6037302    2.4992287    1.4132741 
H     6.8256936    1.4495547    1.0944307 
H     6.3662323    0.8934744   -0.5460906 
H     6.5364386   -1.8300753    0.7844419 
H     5.8083730   -1.6463109    2.4139614 
H     7.1885283   -0.6226133    1.9444878 
H     4.1401042    0.4900441   -4.6812775 
H     2.3832313    0.4074573   -5.0630611 
H     3.3509654    2.4657153   -6.0637556 
H     4.0102094    2.9665714   -4.4737832 
H     2.0340277    4.2776871   -6.3262057 
H     1.7415788    5.1465611   -4.7814718 
H     0.4158816    4.2370017   -5.5845720 
H    -1.2285145    3.5891584   -1.3370859 
H    -0.2612619    4.1945526   -3.5057073 
H    -2.2916386    1.6594770    2.8383276 
H    -4.3944801    5.1697934    4.9055164 
H    -5.1995265    3.8522279    4.0021810 
H    -5.1406118    3.7988160    5.7849014 
H    -4.2038059    1.5564303    5.7060100 
H    -4.1865979    1.5054855    3.9274913 
H    -2.6951245    1.1465428    4.8531369 
H    -2.2540065    4.6220435    6.2935116 
H    -1.4236481    3.0567972    6.0450600 
H    -2.9417987    3.1384798    6.9872392 
H    -0.4712303    5.9341760    5.0600860 
H    -1.7701838    6.7139294    6.0352712 
H    -1.0847918    7.5741685    4.6210894 
H    -0.4071075    4.5872225    0.3352035 
H    -2.1426353    8.7992914    1.5036536 
H    -3.2788940    7.4258742    1.6390600 
H    -2.3747489    7.9719672    3.0655962 
H     1.0234257    6.7271846    1.6708432 
H     0.2948782    7.3876731    3.1538318 
H     0.3871781    8.3973775    1.6871493 
H    -2.0270461    6.4186687   -0.4209128 
H    -1.0863210    7.9382739   -0.3245814 
H    -0.2393106    6.3824781   -0.4062128 
H    -0.1240608   -0.7859228    2.3790993 
H     1.3789579   -2.4302221    6.6059422 
H     2.8972540   -1.7725190    5.9673146 
H     1.6693204   -0.6662116    6.6359968 
H     0.8808491   -2.8458837    2.9266582 
H     1.2811090   -3.6790735    4.4564437 
H     2.5402985   -2.7690649    3.5736305 
H    -1.0269798   -1.4944670    4.0657990 
H    -0.6836195   -0.6230990    5.5823074 
H    -0.6800757   -2.4124661    5.5510299 
H     4.1481723   -1.2071932    4.3802483 
H     5.1321727   -0.2271076    5.5289600 
H     4.9113355    0.3173812    3.8177423 
H     1.5263876    3.1291262    1.8070366 
H     3.3031285    4.4200089    2.2030934 
H     1.7994502    4.7712639    3.1051400 
H     3.3598870    5.3924824    3.6955057 
H     4.8445068    2.3674889    5.0732527 
H     5.0641187    4.0605482    4.5714417 
H     5.1136377    2.7641161    3.3495622 
H     2.8788717    4.4261909    5.9358133 
H     1.3480845    3.6978590    5.3543218 
H     2.5890080    2.6719804    6.1423572 
