227
Energy =
C    -3.9890488    0.5957986    0.5106008 
C    -4.1198292   -0.5248734   -0.3709546 
C    -3.7170515   -1.8236184    0.0100786 
H    -4.3998946   -0.3437680   -1.4172527 
Pd   -1.9987586   -0.3028976    0.1458343 
P    -0.1882437   -1.5287929   -0.7318477 
P    -0.6272719    1.4778947    0.6950844 
H    -4.1271504    0.4208830    1.5876311 
H    -3.6541497   -2.0333089    1.0895008 
C    -4.6400093    4.6403179   -0.8346558 
C    -4.9808376    4.2615911    0.4713871 
C    -4.7729197    2.9465185    0.9055400 
C    -4.2234608    1.9777420    0.0401876 
C    -3.8792517    2.3763686   -1.2729512 
C    -4.0860337    3.6890296   -1.7072220 
H    -4.7998948    5.6697589   -1.1704316 
H    -5.4118673    4.9948251    1.1592707 
H    -5.0380766    2.6631417    1.9290276 
H    -3.4114995    1.6539011   -1.9501869 
H    -3.8069691    3.9727448   -2.7279626 
C    -4.0070650   -5.3482944   -2.4333792 
C    -3.9778970   -5.4464527   -1.0352716 
C    -3.8688682   -4.2899129   -0.2549013 
C    -3.7779933   -3.0143976   -0.8519457 
C    -3.7707365   -2.9358139   -2.2623344 
C    -3.8946089   -4.0869237   -3.0434328 
H    -4.1043459   -6.2501325   -3.0464198 
H    -4.0423634   -6.4250836   -0.5489951 
H    -3.8648141   -4.3688443    0.8361389 
H    -3.6568415   -1.9666890   -2.7503656 
H    -3.8931494   -4.0030365   -4.1355701 
C    -2.0961661    1.9106139   -5.0718413 
C    -2.2011310    0.3832076   -5.3098866 
C    -2.3499845    0.0964349   -6.8264805 
C    -3.5292364   -0.1055456   -4.6731037 
C    -1.0000469   -0.3342198   -4.6277222 
C    -1.0526928   -0.5554260   -3.2343613 
C     0.1581950   -0.8080034   -5.3015304 
O     0.3385052   -0.5541048   -6.6479222 
C     0.9041592    0.7280319   -6.9476468 
C     1.1574392   -1.6009032   -4.6573601 
C     2.1979881   -2.4290277   -5.4643503 
C     1.3956743   -3.4994806   -6.2544731 
C     3.1801468   -3.1536900   -4.5143788 
C     3.0496535   -1.6369587   -6.4916978 
C     1.0534996   -1.7563529   -3.2641012 
C    -0.0416539   -1.2377780   -2.5462833 
C    -0.4052083   -3.3355090   -0.4759931 
C    -0.7938933   -3.7688837    0.8051916 
C    -0.8635764   -5.1317489    1.1352626 
C    -1.3297812   -5.5752360    2.5462133 
C    -0.1400708   -6.1670698    3.3463994 
C    -1.8736115   -4.3758724    3.3557456 
C    -2.4745714   -6.6196539    2.4609197 
C    -0.5026985   -6.0702650    0.1201816 
O    -0.4700449   -7.4002583    0.4900021 
C     0.8083373   -8.0243751    0.6596096 
C    -0.2686996   -5.6725926   -1.2261972 
C    -0.1973992   -4.2867853   -1.4792464 
C    -0.0747953   -6.6418397   -2.4235123 
C    -0.8814281   -7.9574449   -2.2787667 
C    -0.5826385   -5.9758127   -3.7298043 
C     1.4357686   -6.9378986   -2.6190116 
C     1.5002542   -1.2025818   -0.0803692 
C     2.1987287   -2.2133056    0.6047423 
C     3.4753421   -1.9990194    1.1316117 
C     2.1160686    0.0780798   -0.2191356 
C     3.3744139    0.2952634    0.3590242 
C     4.1043102   -0.7397585    1.0172323 
O     3.9192083    1.5515874    0.2548638 
C     5.3441031    1.5261846    0.1089884 
C     5.9880650    0.8213795    1.2983958 
N     5.3794256   -0.4922468    1.4913554 
C     6.1398282   -1.5390723    2.1554203 
C     1.5440860    1.1637818   -1.0795842 
C     2.2435593    1.4640440   -2.2654870 
C     1.7544683    2.4102942   -3.2139042 
O     3.4332753    0.8108449   -2.4586214 
C     3.9740469    0.8693851   -3.7791450 
C     3.8991511    2.2847890   -4.3351106 
N     2.4991461    2.6913054   -4.3599748 
C     2.1277580    3.8139046   -5.2081697 
C     0.3319642    1.8522277   -0.8074616 
C    -0.1948565    2.7296296   -1.7748127 
C     0.5112166    3.0205626   -2.9433251 
C    -1.3653552    3.0357627    1.3401532 
C    -2.0222505    2.8898456    2.5746112 
C    -2.4448616    3.9928878    3.3245460 
C    -2.9960153    3.7861188    4.7571654 
C    -4.4378208    4.3271043    4.9290772 
C    -3.0230802    2.2858984    5.1344404 
C    -2.0462248    4.5035462    5.7539392 
C    -2.2429435    5.2897425    2.7556659 
O    -2.7347878    6.3727150    3.4592610 
C    -3.9229099    6.9793779    2.9407651 
C    -1.4909371    5.4801768    1.5636486 
C    -1.0878527    4.3197319    0.8687629 
C    -1.0235417    6.8427922    0.9755242 
C    -1.9392518    7.2348743   -0.2128959 
C    -0.9632029    7.9987321    2.0060099 
C     0.4257682    6.6973784    0.4250172 
C     0.5697873    1.2025074    2.0620101 
C     1.3853235    2.2836617    2.4380712 
C     2.2114060    2.2193486    3.5642691 
C     2.9585022    3.4835720    4.0559068 
C     4.4946651    3.3278173    3.9641396 
C     2.5409215    3.7760646    5.5218917 
C     2.5698329    4.7177368    3.2083193 
C     2.2294766    0.9878000    4.2874554 
O     3.1678541    0.8559849    5.2968363 
C     4.2798648    0.0288727    4.9455482 
C     1.3024567   -0.0570077    4.0324460 
C     0.5107202    0.0664170    2.8701674 
C     1.0136001   -1.2705835    4.9579091 
C     1.4837437   -2.5750964    4.2693375 
C    -0.5259350   -1.3273852    5.1836073 
C     1.6311192   -1.1946222    6.3758984 
H    -2.9596469    2.4291802   -5.5262658 
H    -2.0770614    2.1382730   -3.9928925 
H    -1.1746602    2.3248590   -5.5130497 
H    -3.3429585    0.4538644   -7.1519335 
H    -1.6005754    0.6091320   -7.4438030 
H    -2.2858057   -0.9830400   -7.0394017 
H    -3.6540330   -1.1930530   -4.8106849 
H    -4.3790445    0.4000423   -5.1620755 
H    -3.5975945    0.1228083   -3.5972971 
H    -1.8982007   -0.1740535   -2.6526210 
H     1.2844400    0.6742207   -7.9793492 
H     1.7257987    0.9733814   -6.2515868 
H     0.1409631    1.5262842   -6.8872989 
H     2.0858953   -4.1439768   -6.8283509 
H     0.6996276   -3.0180867   -6.9607890 
H     0.8152212   -4.1402064   -5.5707349 
H     3.7594236   -2.4407963   -3.8999534 
H     2.6638573   -3.8526846   -3.8342241 
H     3.8947181   -3.7456314   -5.1110866 
H     3.5349464   -0.7539806   -6.0447948 
H     3.8512076   -2.2944591   -6.8719003 
H     2.4501648   -1.3118067   -7.3519073 
H     1.8272420   -2.2950658   -2.7128698 
H    -1.0400983   -3.0134005    1.5568144 
H     0.7179821   -5.4727268    3.3462845 
H    -0.4422319   -6.3382505    4.3953567 
H     0.1889954   -7.1316679    2.9360883 
H    -1.0954529   -3.6265116    3.5645761 
H    -2.2517872   -4.7351351    4.3279598 
H    -2.7104084   -3.8728379    2.8389532 
H    -2.1697655   -7.5120277    1.8970493 
H    -2.7666630   -6.9267264    3.4810064 
H    -3.3658756   -6.1863996    1.9756667 
H     1.1226915   -8.5440035   -0.2636638 
H     1.5789633   -7.2865698    0.9455066 
H     0.6970520   -8.7714661    1.4622524 
H     0.0228616   -3.9429779   -2.4904700 
H    -1.9395813   -7.7393265   -2.0556740 
H    -0.5046921   -8.6208567   -1.4898562 
H    -0.8384280   -8.5098646   -3.2338646 
H    -0.5187671   -6.7028690   -4.5572909 
H    -1.6292429   -5.6475037   -3.6307957 
H     0.0218516   -5.1025023   -4.0223190 
H     1.8885167   -7.4162524   -1.7369486 
H     1.9887267   -6.0017910   -2.8128277 
H     1.5828103   -7.6088034   -3.4845217 
H     1.7497242   -3.2032463    0.7183400 
H     3.9837356   -2.8254228    1.6333743 
H     5.5978526    1.0144232   -0.8390804 
H     5.6686936    2.5763547    0.0546012 
H     5.8830242    1.4475734    2.2058627 
H     7.0688161    0.6972035    1.1021068 
H     6.3383343   -2.3935048    1.4784074 
H     5.6113985   -1.9242558    3.0480239 
H     7.1045975   -1.1245265    2.4838192 
H     5.0143650    0.5181443   -3.6980598 
H     3.4065945    0.1800092   -4.4276430 
H     4.2952096    2.2971754   -5.3653255 
H     4.5236795    2.9688970   -3.7201680 
H     2.7979843    3.8318203   -6.0817872 
H     2.2021579    4.7902930   -4.6847895 
H     1.0945654    3.6955254   -5.5772913 
H    -1.1668749    3.2032381   -1.6138563 
H     0.0898166    3.7375020   -3.6502416 
H    -2.1625458    1.8800258    2.9686385 
H    -4.4643236    5.4252136    4.9145083 
H    -5.1071417    3.9421843    4.1389576 
H    -4.8427257    3.9991517    5.9028856 
H    -3.3829394    2.1821546    6.1722876 
H    -3.7075328    1.7070753    4.4871975 
H    -2.0207618    1.8264673    5.0812559 
H    -2.0026715    5.5842909    5.5489099 
H    -1.0256969    4.0876701    5.6805902 
H    -2.4039899    4.3562772    6.7889650 
H    -4.7865554    6.2949634    3.0241381 
H    -3.8041373    7.2756660    1.8838307 
H    -4.1071851    7.8737293    3.5547914 
H    -0.4966397    4.4355910   -0.0387609 
H    -1.5849838    8.1735198   -0.6759741 
H    -1.9404296    6.4442630   -0.9838829 
H    -2.9837030    7.3872287    0.1077371 
H    -0.4287809    7.6926468    2.9204382 
H    -1.9525823    8.3735914    2.2994453 
H    -0.4156678    8.8439700    1.5529003 
H     0.4956249    6.0112281   -0.4357221 
H     0.7808046    7.6835933    0.0796696 
H     1.1143466    6.3386748    1.2084524 
H     1.3483179    3.1971088    1.8427429 
H     4.9855641    4.2779395    4.2410810 
H     4.8691475    2.5482434    4.6429407 
H     4.7900825    3.0802925    2.9298189 
H     1.4483004    3.9226341    5.5876815 
H     3.0318286    4.7011760    5.8738824 
H     2.8267485    2.9512808    6.1919222 
H     1.4820857    4.9056402    3.2338391 
H     2.8813427    4.6104892    2.1540186 
H     3.0748675    5.6104323    3.6160064 
H     3.9620175   -1.0064581    4.7213261 
H     4.9557749    0.0260635    5.8141698 
H     4.8068473    0.4297422    4.0605321 
H    -0.1843894   -0.7343790    2.5959924 
H     1.0261479   -2.6965259    3.2731457 
H     2.5780991   -2.5746767    4.1257654 
H     1.2174261   -3.4525197    4.8851308 
H    -0.8733666   -0.4107935    5.6913516 
H    -0.7784895   -2.1921930    5.8217037 
H    -1.0952609   -1.4295746    4.2459087 
H     1.1865882   -1.9995106    6.9882693 
H     2.7196160   -1.3469297    6.3834121 
H     1.4150949   -0.2308738    6.8633017 
