227
Energy =
C    -4.0179454    0.8006231    0.2856590 
C    -4.1070836   -0.2030017   -0.7270888 
C    -3.7749956   -1.5515245   -0.4607174 
H    -4.2917325    0.1060467   -1.7639642 
Pd   -2.0247417   -0.1566780   -0.0291621 
P    -0.2470917   -1.4812408   -0.8020901 
P    -0.5901429    1.5323228    0.6480410 
H    -4.2082173    0.4924325    1.3243901 
H    -3.8129481   -1.8745569    0.5912481 
C    -4.5384990    5.0068215   -0.4907091 
C    -4.0716225    4.1588813   -1.5093182 
C    -3.8985037    2.7926019   -1.2656010 
C    -4.2036811    2.2369385   -0.0009415 
C    -4.6717161    3.1033080    1.0103199 
C    -4.8304262    4.4737796    0.7727845 
H    -4.6689488    6.0772036   -0.6801323 
H    -3.8305494    4.5675948   -2.4967470 
H    -3.4969878    2.1528132   -2.0579065 
H    -4.9110926    2.6932618    1.9959287 
H    -5.1803082    5.1264581    1.5790533 
C    -3.9544448   -4.8565982   -3.2074077 
C    -3.8988442   -3.5454522   -3.7090701 
C    -3.8212754   -2.4566842   -2.8360092 
C    -3.8020589   -2.6540559   -1.4361436 
C    -3.8375188   -3.9800301   -0.9497840 
C    -3.9124864   -5.0706152   -1.8216266 
H    -4.0285188   -5.7050342   -3.8954775 
H    -3.9201087   -3.3713908   -4.7900259 
H    -3.7771889   -1.4456559   -3.2497154 
H    -3.8133795   -4.1500868    0.1298901 
H    -3.9397667   -6.0873587   -1.4160640 
C     2.2809179   -4.1126748   -5.5018409 
C     2.5557496   -2.6219698   -5.1716554 
C     3.1336497   -1.8972117   -6.4125859 
C     3.6756390   -2.5973944   -4.0934592 
C     1.2682518   -1.9495415   -4.6172558 
C     1.0730303   -1.9595188   -3.2245406 
C     0.2627594   -1.3028518   -5.3956536 
O     0.3229910   -1.2959262   -6.7770493 
C    -0.0803877   -2.4797400   -7.4787561 
C    -0.7979315   -0.5544538   -4.7974462 
C    -1.7455979    0.3513368   -5.6227974 
C    -0.9085709    1.3446683   -6.4692879 
C    -2.6479721    1.2022821   -4.6975084 
C    -2.6760899   -0.4846876   -6.5357618 
C    -0.9390793   -0.6296877   -3.4029946 
C    -0.0435686   -1.3667669   -2.6194863 
C    -0.4831036   -3.2562432   -0.3946690 
C    -1.0538506   -3.5869051    0.8484341 
C    -1.2073753   -4.9216397    1.2576475 
C    -1.9563276   -5.2655696    2.5711181 
C    -3.1464566   -6.2136099    2.2612822 
C    -1.0252247   -5.9378753    3.6134077 
C    -2.5370142   -3.9917914    3.2267786 
C    -0.7148966   -5.9361587    0.3796333 
O    -0.7270816   -7.2346781    0.8510357 
C     0.5445850   -7.7460662    1.2717683 
C    -0.2859198   -5.6454707   -0.9440146 
C    -0.1548064   -4.2841504   -1.2829910 
C     0.0508512   -6.6847648   -2.0488898 
C    -0.5931058   -8.0769607   -1.8334951 
C    -0.4972896   -6.1752247   -3.4118680 
C     1.5911609   -6.8201965   -2.1728227 
C     1.4463856   -1.0883668   -0.2176353 
C     2.1590052   -2.0050575    0.5717052 
C     3.4379584   -1.7058241    1.0490352 
C     2.0358857    0.1694463   -0.5287129 
C     3.3187574    0.4617169   -0.0338032 
C     4.0487163   -0.4649407    0.7709282 
O     3.8406646    1.6830921   -0.3708808 
C     4.9513904    2.1227665    0.4150950 
C     5.9703854    1.0044018    0.5824520 
N     5.3194911   -0.1256975    1.2371174 
C     6.1798898   -1.1568319    1.7988061 
C     1.3681435    1.2252475   -1.3608792 
C     1.9113335    1.5198415   -2.6232189 
C     1.3945145    2.5702076   -3.4444839 
O     2.9725346    0.7590225   -3.0403192 
C     3.8177829    1.3778760   -4.0159146 
C     2.9840869    1.9293253   -5.1690815 
N     2.0228866    2.8855441   -4.6369601 
C     1.6097843    4.0328894   -5.4293245 
C     0.2500488    1.9778981   -0.9026565 
C    -0.3241148    2.9469172   -1.7493239 
C     0.2448438    3.2518999   -2.9865539 
C    -1.2827644    3.0356481    1.4401125 
C    -2.0001233    2.7860327    2.6214834 
C    -2.3540127    3.8131218    3.5037380 
C    -3.1247778    3.4794758    4.8050586 
C    -4.4477600    4.2863923    4.8745274 
C    -3.4948661    1.9782027    4.8719829 
C    -2.2469376    3.7792854    6.0478807 
C    -1.9803106    5.1459770    3.1447190 
O    -2.2913686    6.1370367    4.0546629 
C    -1.2277789    6.7596880    4.7861941 
C    -1.3826649    5.4473511    1.8874918 
C    -0.9920065    4.3539207    1.0864102 
C    -1.1412012    6.8729469    1.3197765 
C    -1.1597154    6.8367176   -0.2348077 
C    -2.2608163    7.8622922    1.7316698 
C     0.2560260    7.4001391    1.7391424 
C     0.6666277    1.1846185    1.9466538 
C     1.5436082    2.2235802    2.3117649 
C     2.3479642    2.1311631    3.4529406 
C     3.0793033    3.3846218    4.0007887 
C     4.5992881    3.1921528    4.2350357 
C     2.4046056    3.7435049    5.3544679 
C     2.8970248    4.5930233    3.0529307 
C     2.2913521    0.9082677    4.1926612 
O     3.2004338    0.7453384    5.2238379 
C     4.3326779   -0.0459095    4.8438763 
C     1.3275742   -0.0960861    3.9309801 
C     0.5454234    0.0628229    2.7649827 
C     0.9718560   -1.2942281    4.8520138 
C     1.2702780   -2.6224142    4.1141361 
C    -0.5509588   -1.1973807    5.1595414 
C     1.6724207   -1.3290327    6.2313622 
H     3.2015617   -4.5923019   -5.8802369 
H     1.9632953   -4.6552643   -4.5958625 
H     1.4948303   -4.2409583   -6.2608940 
H     4.0884465   -2.3733803   -6.6965695 
H     2.4662143   -1.9212018   -7.2832879 
H     3.3386073   -0.8378498   -6.1836657 
H     3.8154938   -1.5854363   -3.6788735 
H     4.6233604   -2.9314628   -4.5496786 
H     3.4665743   -3.2813586   -3.2530302 
H     1.8242315   -2.4217166   -2.5816681 
H     0.7972647   -3.0913720   -7.7562584 
H    -0.5867486   -2.1538974   -8.4021910 
H    -0.7748558   -3.0865990   -6.8713137 
H    -1.5770942    2.0415386   -7.0061864 
H    -0.2817775    0.8191512   -7.2040944 
H    -0.2525439    1.9327857   -5.8066371 
H    -3.3480101    0.5815464   -4.1104513 
H    -2.0508110    1.8137094   -3.9993767 
H    -3.2592239    1.8838146   -5.3135400 
H    -3.2382450   -1.2294895   -5.9454499 
H    -3.4067304    0.1774696   -7.0339469 
H    -2.1171717   -1.0118006   -7.3206153 
H    -1.7406329   -0.0883035   -2.8947742 
H    -1.3960408   -2.7743845    1.4955952 
H    -2.8013076   -7.1479450    1.7943846 
H    -3.6753577   -6.4632663    3.1983985 
H    -3.8730583   -5.7289242    1.5857926 
H    -0.7722982   -6.9679806    3.3266845 
H    -1.5360325   -5.9827728    4.5918905 
H    -0.0923141   -5.3632256    3.7422723 
H    -3.2238673   -3.4529085    2.5493253 
H    -3.1136502   -4.2757366    4.1233751 
H    -1.7474784   -3.2937856    3.5489483 
H     1.0490132   -7.0417348    1.9581505 
H     0.3396381   -8.6918401    1.7959072 
H     1.2079699   -7.9456297    0.4107866 
H     0.2030008   -4.0235495   -2.2794387 
H    -1.6709912   -7.9873740   -1.6184795 
H    -0.1322987   -8.6519106   -1.0191049 
H    -0.4749727   -8.6658317   -2.7601503 
H    -0.2904053   -6.9292653   -4.1908807 
H    -1.5851957   -6.0122255   -3.3603453 
H    -0.0326090   -5.2324315   -3.7414655 
H     2.0464081   -7.2001548   -1.2426876 
H     2.0540284   -5.8424028   -2.3958780 
H     1.8499119   -7.5180216   -2.9893249 
H     1.7191211   -2.9779229    0.8079731 
H     3.9689084   -2.4550470    1.6401117 
H     5.3811191    2.9827216   -0.1211753 
H     4.5872289    2.4538685    1.4038912 
H     6.8020355    1.3552805    1.2179664 
H     6.3911982    0.7256921   -0.4083111 
H     6.4533597   -1.9364678    1.0566596 
H     5.6881995   -1.6496935    2.6540973 
H     7.1026817   -0.6825485    2.1677332 
H     4.3983112    2.1882596   -3.5347964 
H     4.5065566    0.5911883   -4.3598006 
H     2.4769670    1.0968235   -5.6983140 
H     3.6429193    2.4414530   -5.8906556 
H     2.3665947    4.2137405   -6.2083341 
H     1.5439393    4.9348300   -4.7939718 
H     0.6309524    3.8857171   -5.9282952 
H    -1.2345200    3.4696691   -1.4465246 
H    -0.2184037    4.0205116   -3.6098165 
H    -2.2445654    1.7493212    2.8680402 
H    -4.2592506    5.3693115    4.8453544 
H    -5.1084027    4.0229166    4.0296158 
H    -4.9843296    4.0449091    5.8095351 
H    -4.0759725    1.7919433    5.7911779 
H    -4.1208124    1.6654262    4.0170198 
H    -2.6025000    1.3290529    4.9053776 
H    -2.0692573    4.8552790    6.1764234 
H    -1.2710757    3.2675276    5.9697948 
H    -2.7533657    3.4150094    6.9596640 
H    -0.3377839    6.1072948    4.8312475 
H    -1.6000312    6.9439623    5.8074225 
H    -0.9530365    7.7292017    4.3328055 
H    -0.4339227    4.5493669    0.1714051 
H    -1.1220019    7.8706460   -0.6189254 
H    -0.2919783    6.3040813   -0.6604235 
H    -2.0785590    6.3578246   -0.6129549 
H    -2.2870974    8.0712326    2.8087130 
H    -3.2493142    7.4605947    1.4478851 
H    -2.1134439    8.8187318    1.1998542 
H     1.0478662    6.7355861    1.3508637 
H     0.4217671    8.4096429    1.3213565 
H     0.3771607    7.4611067    2.8306571 
H     1.5531422    3.1320886    1.7066142 
H     5.0601918    4.1672650    4.4731601 
H     4.7968300    2.5139810    5.0763550 
H     5.1026418    2.7951878    3.3363610 
H     1.3242787    3.9245943    5.2111424 
H     2.8589262    4.6596587    5.7737728 
H     2.5308044    2.9276796    6.0843540 
H     1.8329348    4.8476084    2.9100295 
H     3.3447763    4.4158381    2.0583742 
H     3.3945589    5.4758384    3.4900211 
H     4.0294645   -1.0787167    4.5848286 
H     5.0078479   -0.0687847    5.7129176 
H     4.8486514    0.3962976    3.9718683 
H    -0.1957638   -0.6988934    2.4989095 
H     0.7162989   -2.7014671    3.1634965 
H     2.3457150   -2.7076766    3.8800026 
H     0.9866815   -3.4807037    4.7487027 
H    -0.7694507   -0.2728141    5.7217155 
H    -0.8663826   -2.0579200    5.7754986 
H    -1.1710459   -1.1916797    4.2483177 
H     1.2034822   -2.1283975    6.8330796 
H     2.7448392   -1.5631798    6.1622601 
H     1.5613018   -0.3774962    6.7734223 
