227
Energy =
C     3.7848422   -0.0137153   -0.7897270 
C     3.8008626    1.0413729    0.1512997 
C     3.3987447    0.8135968    1.5050499 
H     3.9698130    2.0683654   -0.1956331 
Pd    1.7240119    0.3118587    0.1382755 
P     0.1056550   -0.1760616    1.7391692 
P     0.3167228    0.1465350   -1.7084663 
H     3.7843549   -1.0361241   -0.3810028 
H     3.5969278   -0.1788069    1.9310881 
C     4.8571155    0.0635963   -4.9466855 
C     4.8296700    1.2655790   -4.2216891 
C     4.4789768    1.2650481   -2.8683915 
C     4.1336163    0.0614219   -2.2131836 
C     4.1401315   -1.1363505   -2.9652920 
C     4.5042491   -1.1387235   -4.3145910 
H     5.1502866    0.0655692   -6.0013313 
H     5.0868400    2.2086125   -4.7141058 
H     4.4814971    2.2081814   -2.3159133 
H     3.8606059   -2.0730767   -2.4737478 
H     4.5146657   -2.0797183   -4.8745866 
C     2.8956512    3.9440209    4.4221363 
C     2.7709803    4.2365887    3.0537797 
C     2.9248625    3.2258286    2.1007896 
C     3.2173359    1.8967209    2.4899181 
C     3.3303466    1.6143961    3.8700488 
C     3.1762984    2.6297310    4.8232069 
H     2.7779862    4.7363604    5.1686582 
H     2.5490987    5.2586713    2.7293008 
H     2.7988127    3.4664626    1.0400717 
H     3.5480716    0.5899570    4.1915170 
H     3.2854447    2.3957633    5.8868218 
C    -0.9059692   -3.5982470   -6.3799091 
C    -1.9431329   -3.1565458   -5.3105565 
C    -3.0873982   -4.2044704   -5.2902037 
C    -2.5604302   -1.8112693   -5.7595223 
C    -1.1685899   -2.9938367   -3.9734056 
C    -0.9474947   -1.7153023   -3.4335105 
C    -0.5137044   -4.0957248   -3.3401929 
O    -0.8356632   -5.3565720   -3.8047209 
C    -1.7891694   -6.0833818   -3.0168165 
C     0.4651018   -3.9250228   -2.3223992 
C     1.3218604   -5.0646675   -1.7038635 
C     2.7300146   -4.5266035   -1.3313723 
C     1.5724327   -6.2535541   -2.6666905 
C     0.6528301   -5.5623323   -0.3978798 
C     0.6629141   -2.6100702   -1.8557031 
C    -0.0395876   -1.5180447   -2.3774670 
C     1.0118175    1.1773348   -3.0569462 
C     1.0413707    0.8088553   -4.4039473 
C     1.4527169    1.7026627   -5.4154830 
C     1.4732444    1.1819053   -6.8784379 
C     2.6251580    1.7895181   -7.7185068 
C     1.6913234   -0.3549239   -6.9001055 
C     0.0984630    1.4483079   -7.5483781 
C     1.7920379    3.0269224   -5.0115365 
O     2.1263111    3.9970243   -5.9361217 
C     1.0854415    4.6410312   -6.6809097 
C     1.8942642    3.3951155   -3.6342674 
C     1.4961896    2.4444595   -2.6842465 
C     2.4163764    4.7783428   -3.1689138 
C     3.8064127    5.0841627   -3.7857475 
C     1.4062882    5.8924185   -3.5456039 
C     2.5833315    4.8274165   -1.6316588 
C    -1.2935431    0.9552309   -1.3658712 
C    -1.6278302    2.1858362   -1.9623332 
C    -2.8034152    2.8615062   -1.6293554 
C    -2.1857844    0.3887814   -0.4116873 
C    -3.3515228    1.0898107   -0.0629252 
C    -3.6958398    2.3383653   -0.6691496 
O    -4.1714216    0.5095738    0.8708714 
C    -5.5315421    0.9550634    0.8508071 
C    -5.5891408    2.4794328    0.8466576 
N    -4.8797507    2.9675866   -0.3277136 
C    -5.3137151    4.1790697   -1.0049164 
C    -2.0362994   -1.0077672    0.1181808 
C    -2.9277347   -1.9616650   -0.4051125 
C    -2.9193017   -3.3218083    0.0261155 
O    -3.8332164   -1.5102288   -1.3291127 
C    -4.4684901   -2.5174814   -2.1182744 
C    -4.9571048   -3.6651200   -1.2448596 
N    -3.8111448   -4.2336552   -0.5424507 
C    -3.9694516   -5.5531118    0.0507057 
C    -1.1033228   -1.4057193    1.1134320 
C    -1.1063071   -2.7377015    1.5613715 
C    -2.0031248   -3.6741599    1.0378075 
C     0.9520740   -1.0062333    3.1404863 
C     0.8215315   -0.5831696    4.4719200 
C     1.4889631   -1.2418983    5.5201177 
C     1.3926034   -0.6992639    6.9682440 
C     0.6475254   -1.6863091    7.9027546 
C     2.8208755   -0.4391075    7.5174184 
C     0.6234131    0.6421404    7.0087708 
C     2.2901859   -2.3724910    5.1840911 
O     2.8064370   -3.1222282    6.2223882 
C     2.1463328   -4.3764561    6.4393524 
C     2.5968106   -2.7062004    3.8329364 
C     1.8684390   -2.0264648    2.8395839 
C     3.6903973   -3.7040758    3.3577304 
C     4.5089354   -3.0238157    2.2221981 
C     4.7276752   -4.0992904    4.4377106 
C     3.0222716   -4.9785206    2.7830295 
C    -0.9381123    1.1277506    2.4656321 
C    -1.9713159    0.7640368    3.3387001 
C    -2.8069681    1.7176056    3.9454938 
C    -3.9365955    1.1955164    4.8769390 
C    -3.4071394    1.0669007    6.3293559 
C    -4.3770326   -0.2268484    4.4278981 
C    -5.2132392    2.0722719    4.8480990 
C    -2.5417002    3.0846497    3.6346274 
O    -3.2626009    4.1022638    4.2327421 
C    -2.8979839    4.4789928    5.5676499 
C    -1.5871568    3.4726940    2.6435658 
C    -0.7716496    2.4678879    2.0993286 
C    -1.4651783    4.9277759    2.1267223 
C    -0.5015023    5.0046008    0.9180335 
C    -0.9141621    5.8755057    3.2215568 
C    -2.8496985    5.4196416    1.6330491 
H    -1.3965802   -3.6984012   -7.3650241 
H    -0.0962154   -2.8547361   -6.4721805 
H    -0.4614299   -4.5699669   -6.1106457 
H    -3.6904279   -4.0976993   -6.2090043 
H    -2.6976869   -5.2303455   -5.2663720 
H    -3.7651002   -4.0647925   -4.4313514 
H    -3.3012094   -1.4335121   -5.0316907 
H    -3.0775496   -1.9528490   -6.7236786 
H    -1.7955899   -1.0301669   -5.9095422 
H    -1.4770024   -0.8491241   -3.8356747 
H    -2.3039536   -6.7811870   -3.6959198 
H    -2.5216680   -5.3998708   -2.5515646 
H    -1.2854458   -6.6670034   -2.2239622 
H     3.3352374   -5.3477367   -0.9110521 
H     2.6999667   -3.7301383   -0.5700232 
H     3.2531010   -4.1392286   -2.2226440 
H     0.6822021   -6.8737477   -2.8335978 
H     1.9264236   -5.9005595   -3.6499077 
H     2.3540469   -6.9015939   -2.2320978 
H     0.5560198   -4.7357522    0.3250198 
H    -0.3593598   -5.9565740   -0.5822288 
H     1.2577024   -6.3647788    0.0613226 
H     1.3759741   -2.4180175   -1.0490057 
H     0.7342531   -0.2010068   -4.6780402 
H     3.5923066    1.6420898   -7.2093603 
H     2.6689137    1.2756283   -8.6947358 
H     2.5118211    2.8646711   -7.9061106 
H     2.5940314   -0.6426414   -6.3377221 
H     1.8090460   -0.6883752   -7.9452485 
H     0.8351605   -0.9089346   -6.4817577 
H    -0.1477095    2.5191058   -7.6002449 
H     0.0952674    1.0481599   -8.5783102 
H    -0.7066229    0.9465127   -6.9830155 
H     0.9916336    4.1977942   -7.6888375 
H     0.1157579    4.5726674   -6.1572095 
H     1.3709696    5.7004447   -6.7901527 
H     1.5276969    2.6917870   -1.6188834 
H     3.7730637    5.0709348   -4.8842333 
H     4.5523787    4.3430956   -3.4485700 
H     4.1497256    6.0797518   -3.4522692 
H     1.3311928    6.0310098   -4.6323490 
H     0.4017064    5.6576740   -3.1504800 
H     1.7296780    6.8545720   -3.1093413 
H     3.2861322    4.0547017   -1.2733054 
H     1.6258385    4.7026192   -1.0984338 
H     2.9979661    5.8082745   -1.3433703 
H    -0.9648945    2.6328444   -2.7063606 
H    -3.0236799    3.8135991   -2.1177592 
H    -6.0378484    0.5461793   -0.0447689 
H    -5.9985527    0.5382067    1.7560268 
H    -5.1439754    2.8739932    1.7829193 
H    -6.6397709    2.8119341    0.8002068 
H    -5.3231750    4.0301711   -2.1005362 
H    -4.6687830    5.0512389   -0.7774810 
H    -6.3380863    4.4166819   -0.6798886 
H    -5.3027610   -2.0185252   -2.6348526 
H    -3.7480170   -2.8923427   -2.8664022 
H    -5.4096322   -4.4453964   -1.8814739 
H    -5.7382603   -3.3018125   -0.5422587 
H    -4.6545234   -6.1420642   -0.5791866 
H    -4.3810396   -5.5154816    1.0814699 
H    -3.0001586   -6.0799150    0.0824061 
H    -0.4146995   -3.0536054    2.3467940 
H    -1.9876588   -4.6935204    1.4288839 
H     0.1877906    0.2764355    4.6910811 
H    -0.3325482   -1.9692404    7.4789999 
H     1.2341370   -2.5980255    8.0836502 
H     0.4692733   -1.2064186    8.8817293 
H     2.7583717   -0.0122186    8.5344157 
H     3.4071306   -1.3688731    7.5632865 
H     3.3594530    0.2814417    6.8775902 
H     1.0811404    1.4032657    6.3542172 
H     0.6355626    1.0321545    8.0410252 
H    -0.4328103    0.5247200    6.7129467 
H     2.2645367   -5.0544899    5.5745186 
H     1.0675172   -4.2282778    6.6309892 
H     2.6216869   -4.8265875    7.3237045 
H     2.0304529   -2.2859760    1.7870217 
H     5.3040709   -3.7075443    1.8783168 
H     3.8930348   -2.7747291    1.3423064 
H     4.9872651   -2.0965197    2.5832396 
H     4.3225215   -4.7793873    5.1993658 
H     5.1347487   -3.2132718    4.9511583 
H     5.5626034   -4.6248006    3.9414362 
H     2.3336918   -4.7301337    1.9580214 
H     3.7886854   -5.6712719    2.3915044 
H     2.4426132   -5.5137403    3.5548184 
H    -2.1299839   -0.2977592    3.5377635 
H    -4.2050971    0.6885776    6.9933615 
H    -2.5656339    0.3537809    6.3672473 
H    -3.0511947    2.0261579    6.7355394 
H    -4.5986122   -0.2590477    3.3485811 
H    -5.2817507   -0.5202596    4.9876343 
H    -3.6094721   -0.9912919    4.6364617 
H    -5.5856327    2.1872166    3.8162031 
H    -5.0630074    3.0794099    5.2568082 
H    -6.0025078    1.5767780    5.4402937 
H    -3.1126329    5.5552602    5.6671540 
H    -1.8248853    4.2968173    5.7543160 
H    -3.4992008    3.9290347    6.3144500 
H    -0.0025094    2.7116846    1.3635838 
H     0.5310006    4.7364824    1.1969031 
H    -0.8264415    4.3453881    0.0937695 
H    -0.4830618    6.0402680    0.5362954 
H    -1.6381128    6.0292850    4.0335923 
H    -0.6947263    6.8655796    2.7825814 
H     0.0201317    5.4747881    3.6517936 
H    -2.7598815    6.4366132    1.2102079 
H    -3.2212709    4.7468253    0.8426941 
H    -3.5852620    5.4406910    2.4504172 
