227
Energy =
C    -4.0167174    0.8428214    0.0424878 
C    -4.0426339   -0.1300556   -1.0050056 
C    -3.7300264   -1.4852339   -0.7523544 
H    -4.1552218    0.2091397   -2.0427741 
Pd   -2.0093842   -0.0991293   -0.1747069 
P    -0.1895772   -1.4006379   -0.8664913 
P    -0.5980933    1.5345156    0.6522036 
H    -4.2773567    0.5049459    1.0563279 
H    -3.8352993   -1.8297436    0.2876053 
C    -4.4387217    5.0790193   -0.6311039 
C    -3.9384899    4.2535293   -1.6511647 
C    -3.8043589    2.8768405   -1.4423765 
C    -4.1739967    2.2887109   -0.2099682 
C    -4.6812436    3.1313938    0.8030934 
C    -4.8116541    4.5090811    0.5948933 
H    -4.5362619    6.1576354   -0.7914673 
H    -3.6400287    4.6862124   -2.6124051 
H    -3.3740035    2.2560281   -2.2344299 
H    -4.9716780    2.6974735    1.7650202 
H    -5.2074023    5.1408868    1.3950798 
C    -3.5371486   -4.7529076   -3.5440388 
C    -3.5533570   -3.4342083   -4.0270454 
C    -3.6184571   -2.3553800   -3.1402948 
C    -3.6627514   -2.5708033   -1.7438707 
C    -3.6446508   -3.9041068   -1.2751764 
C    -3.5851059   -4.9835273   -2.1611703 
H    -3.4886229   -5.5939298   -4.2435222 
H    -3.5171004   -3.2460874   -5.1052212 
H    -3.6301821   -1.3383136   -3.5406130 
H    -3.6760705   -4.0893134   -0.1982475 
H    -3.5741007   -6.0051580   -1.7673255 
C     3.0607417   -2.2697461   -6.5656261 
C     2.5579416   -2.8074798   -5.2020644 
C     3.7264579   -2.6149927   -4.1918309 
C     2.2896052   -4.3315549   -5.3054183 
C     1.2911341   -2.0787624   -4.6716867 
C     1.1047988   -2.0302831   -3.2781759 
C     0.3073779   -1.4212340   -5.4672477 
O     0.3323566   -1.5114845   -6.8464179 
C    -0.1976061   -2.7199863   -7.4083934 
C    -0.6919770   -0.5766357   -4.8940368 
C    -1.5542358    0.3846431   -5.7513308 
C    -2.5417914   -0.3778404   -6.6694165 
C    -0.6230594    1.2806195   -6.6107824 
C    -2.3913200    1.3252698   -4.8526292 
C    -0.8309681   -0.5998465   -3.4967042 
C     0.0163655   -1.3714821   -2.6904392 
C    -0.4267195   -3.1413769   -0.3326688 
C     0.0305741   -4.2456227   -1.0575936 
C    -0.1061737   -5.5663089   -0.5833439 
C     0.3792444   -6.7016113   -1.5273633 
C    -0.0849900   -8.1280129   -1.1439964 
C    -0.2000089   -6.4444179   -2.9476446 
C     1.9279772   -6.6657173   -1.6062639 
C    -0.6809750   -5.7274867    0.7064187 
O    -0.6803252   -6.9629449    1.3242348 
C     0.5642103   -7.3017752    1.9524230 
C    -1.3138614   -4.6479242    1.3952724 
C    -1.1390601   -3.3619359    0.8613518 
C    -2.2423718   -4.8798444    2.6157059 
C    -2.9410563   -3.5659843    3.0358438 
C    -3.3497361   -5.8955493    2.2232446 
C    -1.4827082   -5.4160118    3.8555362 
C     1.5033155   -0.9623033   -0.3226373 
C     2.2866047   -1.8831877    0.3931675 
C     3.6045794   -1.5960029    0.7603525 
C     2.0655110    0.3002178   -0.6749878 
C     3.3866648    0.5737814   -0.2992059 
C     4.1950924   -0.3586032    0.4164680 
O     3.9108412    1.8048964   -0.6171662 
C     5.3041460    1.7283034   -0.9462057 
C     6.0951811    1.2107717    0.2494731 
N     5.4914196   -0.0214428    0.7547056 
C     6.2886678   -0.8941991    1.6039579 
C     1.3346550    1.3788583   -1.4183507 
C     1.8030829    1.7371309   -2.6969631 
C     1.2242590    2.8113697   -3.4420667 
O     2.8662288    1.0286425   -3.1955299 
C     3.0622624    1.1335680   -4.6112298 
C     3.0362379    2.5907801   -5.0481615 
N     1.7459452    3.1583720   -4.6824442 
C     1.2989591    4.3689112   -5.3549202 
C     0.2378368    2.1014406   -0.8631186 
C    -0.3716788    3.1206117   -1.6190900 
C     0.1229351    3.4858638   -2.8716923 
C    -1.3447664    2.9538457    1.5454617 
C    -2.1049471    2.5778647    2.6660989 
C    -2.5564138    3.5137273    3.6031667 
C    -3.2256227    3.0345471    4.9147126 
C    -4.6558898    3.5988211    5.1052026 
C    -3.3330954    1.4917631    4.9564913 
C    -2.3271085    3.4764409    6.1017032 
C    -2.2688846    4.8892473    3.3416838 
O    -2.8060369    5.8273872    4.2035530 
C    -3.9292770    6.5569669    3.6969804 
C    -1.4050378    5.2926419    2.2869048 
C    -0.9798711    4.2915826    1.3870676 
C    -0.8270276    6.7182731    2.0585648 
C    -1.5051878    7.3497957    0.8156218 
C    -0.9475549    7.6850443    3.2629486 
C     0.7002049    6.5928051    1.7830463 
C     0.6601212    1.1252309    1.9231706 
C     0.4916899    0.0402326    2.7851695 
C     1.2557634   -0.0897163    3.9663523 
C     1.1024600   -1.4052719    4.7768710 
C     1.2814076   -2.5842924    3.7800122 
C    -0.3121445   -1.4774059    5.4039933 
C     2.1607323   -1.6345474    5.8835709 
C     2.1273495    0.9854481    4.2814276 
O     2.7139451    1.0639287    5.5319198 
C     1.8265237    1.5411408    6.5533885 
C     2.4470191    2.0090921    3.3384072 
C     1.6808289    2.0598449    2.1677798 
C     3.6177255    2.9968959    3.5580688 
C     4.9094516    2.1804961    3.8278489 
C     3.3519363    3.9652954    4.7385582 
C     3.8540416    3.8611395    2.2972567 
H     4.0522103   -2.7074423   -6.7770408 
H     2.3983848   -2.5247132   -7.4031839 
H     3.1683291   -1.1724432   -6.5495034 
H     4.6587305   -3.0029044   -4.6367452 
H     3.8733059   -1.5528485   -3.9344689 
H     3.5667483   -3.1671923   -3.2503727 
H     2.0304654   -4.7486490   -4.3178077 
H     3.1924933   -4.8535740   -5.6700578 
H     1.4605607   -4.5630126   -5.9934688 
H     1.8454556   -2.4955827   -2.6246515 
H    -0.4607937   -2.4912205   -8.4527896 
H    -1.0983565   -3.0508740   -6.8602533 
H     0.5511997   -3.5326706   -7.3981394 
H    -3.2124976    0.3416095   -7.1723358 
H    -3.1695852   -1.0735266   -6.0861964 
H    -2.0193302   -0.9449560   -7.4518895 
H     0.0706696    1.8433489   -5.9631093 
H    -0.0338815    0.6771423   -7.3173451 
H    -1.2274993    2.0045082   -7.1869600 
H    -1.7568803    1.8963775   -4.1531436 
H    -2.9344386    2.0458938   -5.4878801 
H    -3.1498529    0.7745015   -4.2680056 
H    -1.5950183    0.0070300   -3.0035521 
H     0.5001194   -4.0832715   -2.0290094 
H    -1.1698208   -8.1628774   -0.9543849 
H     0.1397478   -8.8036662   -1.9883603 
H     0.4302559   -8.5308971   -0.2609806 
H    -1.2993773   -6.5129674   -2.9347785 
H     0.1878657   -7.2075178   -3.6449686 
H     0.0662345   -5.4564997   -3.3551131 
H     2.3856213   -6.8499100   -0.6185515 
H     2.2944404   -7.4411174   -2.3025847 
H     2.2892592   -5.6856111   -1.9650067 
H     0.4101994   -8.2759564    2.4402059 
H     1.3816235   -7.3856825    1.2130129 
H     0.8450812   -6.5456112    2.7086892 
H    -1.5789303   -2.4965212    1.3656709 
H    -3.5376533   -3.1335951    2.2127456 
H    -2.2219486   -2.8041000    3.3817454 
H    -3.6317367   -3.7728233    3.8706900 
H    -4.0248182   -6.0605870    3.0818561 
H    -3.9589504   -5.5146946    1.3846756 
H    -2.9141537   -6.8628368    1.9304838 
H    -0.6158906   -4.7794632    4.0971065 
H    -1.1388842   -6.4486319    3.7040585 
H    -2.1586559   -5.4160511    4.7292162 
H     1.8643315   -2.8549303    0.6635904 
H     4.1772725   -2.3451665    1.3120524 
H     5.4268139    1.0685945   -1.8267559 
H     5.6186027    2.7490257   -1.2109949 
H     6.1298572    1.9853028    1.0408666 
H     7.1365114    1.0075630   -0.0653197 
H     6.5394145   -1.8488442    1.0993823 
H     5.7576120   -1.1240271    2.5462274 
H     7.2271641   -0.3798715    1.8597661 
H     4.0397520    0.6720431   -4.8155466 
H     2.2725509    0.5604317   -5.1310986 
H     3.1565182    2.6481534   -6.1437266 
H     3.8814315    3.1415942   -4.5811299 
H     1.7974838    4.4306453   -6.3341289 
H     1.5352831    5.2867913   -4.7776897 
H     0.2095013    4.3366901   -5.5328762 
H    -1.2480648    3.6418869   -1.2275680 
H    -0.3529661    4.3090189   -3.4088943 
H    -2.3154254    1.5148936    2.8126626 
H    -4.6418861    4.6759619    5.3205291 
H    -5.2788408    3.4203681    4.2103846 
H    -5.1421560    3.0952307    5.9594731 
H    -3.7763161    1.1870509    5.9199823 
H    -3.9842842    1.0996675    4.1536421 
H    -2.3463366    1.0041336    4.8744822 
H    -2.2327232    4.5730968    6.1363604 
H    -1.3179320    3.0369173    6.0050095 
H    -2.7642135    3.1314505    7.0563146 
H    -4.8150995    5.9025658    3.6010521 
H    -3.7114651    7.0083212    2.7124641 
H    -4.1414795    7.3512410    4.4285328 
H    -0.3123555    4.5667555    0.5682729 
H    -1.0707128    8.3433515    0.6037383 
H    -1.3710306    6.7149208   -0.0780302 
H    -2.5903761    7.4774614    0.9727309 
H    -0.5913750    7.2182102    4.1951740 
H    -1.9712416    8.0468700    3.4292220 
H    -0.3213317    8.5715067    3.0587648 
H     0.9312002    6.0222190    0.8685760 
H     1.1342209    7.5998487    1.6571023 
H     1.2082191    6.1028574    2.6319168 
H    -0.2559941   -0.7200095    2.5328590 
H     1.2130426   -3.5427644    4.3237340 
H     0.5198313   -2.5969506    2.9843266 
H     2.2715860   -2.5308968    3.2977605 
H    -0.4617849   -0.6756670    6.1478456 
H    -0.4612549   -2.4471532    5.9118296 
H    -1.0985096   -1.3706338    4.6373056 
H     2.0271127   -0.9795027    6.7555799 
H     3.1843834   -1.4925083    5.5015502 
H     2.0655237   -2.6758712    6.2402283 
H     2.4159225    1.5862172    7.4816403 
H     0.9668565    0.8604782    6.6947362 
H     1.4429381    2.5481746    6.3053872 
H     1.8486496    2.8555418    1.4380072 
H     4.8223577    1.5971563    4.7572416 
H     5.0991557    1.4817609    2.9950472 
H     5.7758157    2.8604736    3.9195502 
H     2.3733635    4.4650950    4.6254841 
H     4.1328658    4.7466266    4.7596859 
H     3.3768204    3.4454697    5.7067441 
H     4.7523910    4.4843517    2.4509101 
H     4.0082286    3.2460193    1.3952805 
H     3.0092976    4.5444567    2.1029833 
