227
Energy =
C     3.7150027   -0.6103465   -1.1372210 
C     3.9761676    0.2748005   -0.0629826 
C     3.7000176   -0.1271120    1.2799876 
H     4.2446985    1.3191161   -0.2673706 
Pd    1.8346013   -0.1666090    0.0726579 
P     0.2225396   -0.3757852    1.7308263 
P     0.2714220    0.0302323   -1.6414215 
H     3.6444673   -1.6791451   -0.8803365 
H     3.8092830   -1.1973032    1.5056990 
C     4.3696743    0.0379439   -5.3346433 
C     4.4908490    1.1151671   -4.4421178 
C     4.2730730    0.9245772   -3.0748960 
C     3.9170346   -0.3457896   -2.5681128 
C     3.7711316   -1.4140193   -3.4841890 
C     4.0006006   -1.2268596   -4.8508687 
H     4.5600652    0.1866398   -6.4024537 
H     4.7608833    2.1086784   -4.8134884 
H     4.3857761    1.7715396   -2.3936931 
H     3.4839655   -2.4030283   -3.1123003 
H     3.8945195   -2.0712218   -5.5403767 
C     4.0450351    2.4426229    4.7195806 
C     4.3901750    1.0861007    4.8020809 
C     4.2755917    0.2625543    3.6766405 
C     3.8151305    0.7737148    2.4447454 
C     3.4647704    2.1419066    2.3773008 
C     3.5829419    2.9669080    3.5006643 
H     4.1310499    3.0889743    5.5993282 
H     4.7484225    0.6619765    5.7454163 
H     4.5486389   -0.7936436    3.7501665 
H     3.0745216    2.5525157    1.4393011 
H     3.3060453    4.0236292    3.4304647 
C     2.1070568   -5.6377295   -3.6467573 
C     1.1185700   -5.1513442   -2.5576808 
C     1.9345595   -4.9223020   -1.2609947 
C     0.0754889   -6.2545502   -2.2448475 
C     0.3904172   -3.8557319   -2.9941421 
C     0.6294634   -2.6611940   -2.3001527 
C    -0.5631143   -3.8180830   -4.0583448 
O    -0.7230956   -4.9825656   -4.7873297 
C    -0.1549842   -5.0367134   -6.1030303 
C    -1.3812421   -2.6749502   -4.3061021 
C    -2.5602165   -2.6048945   -5.3174448 
C    -2.0454367   -2.1386942   -6.7046591 
C    -3.6027409   -1.5517725   -4.8458293 
C    -3.3273645   -3.9435664   -5.4588647 
C    -1.0983403   -1.5215832   -3.5511131 
C    -0.0726511   -1.4880280   -2.5977222 
C     0.8656304    1.3112309   -2.8143835 
C     0.7239579    1.1978529   -4.2002027 
C     1.1290541    2.2180964   -5.0839963 
C     0.9526875    1.9639216   -6.6058285 
C     2.0329083    2.6623229   -7.4701060 
C     1.0803321    0.4465742   -6.9123101 
C    -0.4724958    2.3974178   -7.0416928 
C     1.6570751    3.4045342   -4.4992948 
O     1.9985297    4.4958063   -5.2745071 
C     0.9418439    5.3541823   -5.7231158 
C     1.9429017    3.4987779   -3.1020334 
C     1.5148200    2.4410534   -2.2843744 
C     2.7399211    4.6838771   -2.4976058 
C     1.9404603    6.0091684   -2.5928976 
C     3.0517965    4.4430264   -1.0023046 
C     4.1019401    4.8437270   -3.2250138 
C    -1.3999682    0.5913726   -1.1566455 
C    -1.9042042    1.8348628   -1.5757759 
C    -3.1990659    2.2463353   -1.2468953 
C    -2.2266285   -0.2694683   -0.3797497 
C    -3.5282097    0.1497830   -0.0727303 
C    -4.0475401    1.4126912   -0.4835137 
O    -4.3364209   -0.6890724    0.6618964 
C    -5.7024787   -0.6182753    0.2297206 
C    -6.2514224    0.7858630    0.4450771 
N    -5.3292900    1.7751574   -0.1116079 
C    -5.8322645    3.1148465   -0.3739916 
C    -1.8052783   -1.6089194    0.1499669 
C    -2.4733474   -2.7437234   -0.3431237 
C    -2.2630077   -4.0492162    0.2017467 
O    -3.3597280   -2.5490720   -1.3744360 
C    -4.3183469   -3.5949100   -1.5674070 
C    -3.6244825   -4.9518789   -1.5946768 
N    -2.9368429   -5.1373387   -0.3250369 
C    -2.8143233   -6.4592960    0.2686996 
C    -0.8772515   -1.7628236    1.2249115 
C    -0.7070525   -3.0402927    1.7902310 
C    -1.3801020   -4.1589210    1.2966563 
C     0.9346505   -0.8537136    3.3552488 
C     0.7029977   -0.0881187    4.5040445 
C     1.2125595   -0.4582646    5.7604325 
C     0.9044983    0.4445261    6.9841942 
C    -0.1949458   -0.2185075    7.8535754 
C     2.1659307    0.7241401    7.8407995 
C     0.3649412    1.8244045    6.5298161 
C     1.9459265   -1.6781364    5.8394664 
O     2.3710348   -2.0814055    7.0895857 
C     1.6692494   -3.1282346    7.7702483 
C     2.3181619   -2.4095595    4.6692105 
C     1.7932427   -1.9604420    3.4447719 
C     3.2450317   -3.6559195    4.6560806 
C     4.4110235   -3.5429078    5.6710749 
C     2.4014980   -4.9316283    4.9200391 
C     3.9073481   -3.8427427    3.2638290 
C    -0.8364184    1.0537735    2.1389166 
C    -0.4355728    2.3528129    1.8154464 
C    -1.1207345    3.4841272    2.3090816 
C    -0.7130784    4.8708427    1.7402843 
C     0.7270649    5.2210603    2.1883751 
C    -1.6541862    6.0482130    2.0938778 
C    -0.7539184    4.7614412    0.1903222 
C    -2.1588781    3.2387144    3.2468068 
O    -2.7071196    4.2855679    3.9636722 
C    -1.8867864    4.7520318    5.0443200 
C    -2.6978899    1.9335662    3.4618570 
C    -2.0079127    0.8542367    2.8923882 
C    -4.0208852    1.7075275    4.2330278 
C    -5.1225486    2.5994554    3.6010375 
C    -3.8830882    2.0387497    5.7402052 
C    -4.4756814    0.2331970    4.1230388 
H     2.6994299   -6.4876224   -3.2630948 
H     1.5859404   -5.9795954   -4.5512935 
H     2.8092492   -4.8330979   -3.9293369 
H     2.3876324   -5.8788992   -0.9487937 
H     2.7607346   -4.2031650   -1.4071363 
H     1.2979149   -4.5616533   -0.4335654 
H    -0.6067819   -5.9061432   -1.4519381 
H     0.5858154   -7.1671495   -1.8877897 
H    -0.5201062   -6.5082153   -3.1340808 
H     1.3577667   -2.6298333   -1.4873694 
H     0.1700908   -6.0762329   -6.2717080 
H     0.7124678   -4.3589853   -6.1912695 
H    -0.9059068   -4.7737895   -6.8701377 
H    -2.8838716   -2.0847453   -7.4221580 
H    -1.2832808   -2.8145095   -7.1216300 
H    -1.5967292   -1.1337126   -6.6299547 
H    -3.8940397   -1.7121135   -3.7947033 
H    -3.2278651   -0.5180556   -4.9369749 
H    -4.5024141   -1.6231347   -5.4809290 
H    -2.7278527   -4.7459036   -5.9069868 
H    -3.6752907   -4.3033628   -4.4762799 
H    -4.2149454   -3.7835040   -6.0957514 
H    -1.7081085   -0.6262519   -3.6863060 
H     0.2935399    0.2839821   -4.6097365 
H     3.0432477    2.4119409   -7.1040015 
H     1.9465837    2.3030805   -8.5106315 
H     1.9461708    3.7561896   -7.4843851 
H     2.0302922    0.0397234   -6.5312882 
H     1.0458182    0.2951046   -8.0048324 
H     0.2591105   -0.1472287   -6.4802330 
H    -0.6594515    3.4679042   -6.8638671 
H    -0.6177225    2.1997807   -8.1191358 
H    -1.2348274    1.8267900   -6.4814258 
H     1.3720728    6.3634843   -5.8238692 
H     0.5586027    5.0345279   -6.7089790 
H     0.1103612    5.3774100   -4.9963825 
H     1.6963915    2.4733427   -1.2059963 
H     0.9168104    5.8829037   -2.2008034 
H     1.8789244    6.3748658   -3.6265881 
H     2.4423323    6.7907884   -1.9948719 
H     2.1394792    4.3888126   -0.3863668 
H     3.6318800    3.5164016   -0.8479111 
H     3.6597928    5.2793854   -0.6179637 
H     3.9643387    5.0068795   -4.3036924 
H     4.7315294    3.9486366   -3.0795967 
H     4.6476500    5.7072576   -2.8043177 
H    -1.2793644    2.4945001   -2.1843651 
H    -3.5551397    3.2165349   -1.6011259 
H    -5.7545111   -0.9044080   -0.8388211 
H    -6.2593969   -1.3533482    0.8302977 
H    -6.4119092    0.9673808    1.5254536 
H    -7.2349064    0.8693794   -0.0574771 
H    -6.0382277    3.2862916   -1.4505192 
H    -5.1102337    3.8760453   -0.0280021 
H    -6.7687867    3.2580533    0.1867273 
H    -5.0665411   -3.5669982   -0.7518505 
H    -4.8146496   -3.3734120   -2.5243354 
H    -2.9214522   -4.9968533   -2.4516886 
H    -4.3737898   -5.7508896   -1.7233451 
H    -1.7936464   -6.8792449    0.1671161 
H    -3.5159081   -7.1394375   -0.2376277 
H    -3.0728524   -6.4308745    1.3435054 
H    -0.0413801   -3.1759357    2.6448096 
H    -1.2092885   -5.1299124    1.7673290 
H     0.1010130    0.8150472    4.4181950 
H    -1.0948300   -0.4319979    7.2493960 
H     0.1480934   -1.1600571    8.3062249 
H    -0.4857557    0.4602974    8.6756877 
H     1.8901528    1.3618510    8.6997626 
H     2.6216710   -0.2012420    8.2181289 
H     2.9190756    1.2656823    7.2450131 
H     1.0716326    2.3324506    5.8499515 
H     0.2244914    2.4645008    7.4180975 
H    -0.6118441    1.7496364    6.0219475 
H     0.6744777   -3.3030508    7.3246973 
H     1.5512851   -2.8204135    8.8230031 
H     2.2550939   -4.0657551    7.7428800 
H     2.0572427   -2.4902220    2.5268497 
H     5.0941997   -4.4002841    5.5383585 
H     4.9882504   -2.6177316    5.4962544 
H     4.0751067   -3.5273591    6.7153555 
H     1.6209474   -5.0412787    4.1456456 
H     1.9016192   -4.9096947    5.8991154 
H     3.0461945   -5.8285465    4.8878992 
H     4.4780305   -2.9476914    2.9591747 
H     4.6147857   -4.6877010    3.3141031 
H     3.1792238   -4.0804768    2.4689349 
H     0.4313752    2.4814889    1.1584324 
H     1.0494060    6.1763268    1.7369082 
H     0.7911295    5.3207752    3.2859973 
H     1.4423232    4.4403854    1.8821958 
H    -2.7086378    5.8019731    1.8908551 
H    -1.3731613    6.9123144    1.4654245 
H    -1.5721824    6.3706296    3.1413938 
H    -1.7798060    4.5461963   -0.1517136 
H    -0.1026743    3.9654905   -0.2034382 
H    -0.4287907    5.7170375   -0.2567320 
H    -0.8831243    5.0527995    4.6924908 
H    -1.7700022    3.9706314    5.8172430 
H    -2.4046387    5.6228173    5.4736638 
H    -2.3566578   -0.1685352    3.0518843 
H    -4.9005310    3.6671695    3.7468830 
H    -5.1915490    2.4072048    2.5170496 
H    -6.1015451    2.3769640    4.0627281 
H    -3.0496352    1.4747980    6.1949581 
H    -4.8113166    1.7551606    6.2679824 
H    -3.7199791    3.1126021    5.9088243 
H    -5.4627593    0.1239670    4.6053006 
H    -4.5625598   -0.0957400    3.0738466 
H    -3.7797195   -0.4506925    4.6410325 
