227
Energy =
C    -4.0563670    0.7081993    0.3746497 
C    -4.1294058   -0.2972008   -0.6383985 
C    -3.7598346   -1.6364478   -0.3784316 
H    -4.3315253    0.0084371   -1.6731069 
Pd   -2.0464372   -0.1860876    0.0462852 
P    -0.2301706   -1.4607268   -0.7184837 
P    -0.6477847    1.5352506    0.7151346 
H    -4.2355786    0.3982561    1.4147921 
H    -3.7805865   -1.9643275    0.6723839 
C    -4.7001790    4.8901676   -0.4362606 
C    -4.1788267    4.0537716   -1.4374203 
C    -3.9714645    2.6949305   -1.1813731 
C    -4.2812332    2.1373794    0.0814832 
C    -4.7986223    2.9915362    1.0779476 
C    -5.0089587    4.3513290    0.8203679 
H    -4.8608740    5.9543653   -0.6356372 
H    -3.9269198    4.4649732   -2.4211261 
H    -3.5350553    2.0619584   -1.9608250 
H    -5.0377536    2.5814088    2.0645595 
H    -5.4156881    4.9928473    1.6075805 
C    -3.8992783   -4.9306448   -3.1405919 
C    -3.8531826   -3.6166856   -3.6362363 
C    -3.7857953   -2.5312113   -2.7582033 
C    -3.7690489   -2.7346818   -1.3591550 
C    -3.7936664   -4.0629363   -0.8791192 
C    -3.8574254   -5.1503801   -1.7557614 
H    -3.9652927   -5.7767641   -3.8322996 
H    -3.8732789   -3.4380807   -4.7164710 
H    -3.7471884   -1.5179624   -3.1670988 
H    -3.7713406   -4.2372370    0.1997724 
H    -3.8770733   -6.1689931   -1.3545617 
C     3.1894133   -1.7933655   -6.3188413 
C     2.6302352   -2.5201795   -5.0705832 
C     3.7457643   -2.4493887   -3.9896230 
C     2.4026801   -4.0220424   -5.3854985 
C     1.3209741   -1.8820567   -4.5256618 
C     1.1181705   -1.8943351   -3.1340547 
C     0.3004435   -1.2680111   -5.3111588 
O     0.3670204   -1.2649787   -6.6924537 
C    -0.0009684   -2.4640641   -7.3877870 
C    -0.7856382   -0.5507316   -4.7204877 
C    -1.7573184    0.3220988   -5.5534555 
C    -2.6922213    1.1457948   -4.6356590 
C    -2.6554386   -0.5448092   -6.4701487 
C    -0.9469418    1.3392737   -6.3973289 
C    -0.9312700   -0.6252092   -3.3261232 
C    -0.0186117   -1.3331091   -2.5360308 
C    -0.4455329   -3.2453150   -0.3355181 
C    -1.0109879   -3.6053146    0.9018370 
C    -1.1517602   -4.9494341    1.2853731 
C    -1.8891279   -5.3256773    2.5968645 
C    -3.0667509   -6.2882618    2.2838176 
C    -0.9390193   -5.9977762    3.6221240 
C    -2.4860504   -4.0716363    3.2753486 
C    -0.6533008   -5.9427733    0.3867973 
O    -0.6597723   -7.2504140    0.8323105 
C     0.6109424   -7.7731503    1.2412406 
C    -0.2287316   -5.6221475   -0.9313274 
C    -0.1099325   -4.2535271   -1.2436777 
C     0.1155613   -6.6379602   -2.0550803 
C    -0.4026391   -6.0920682   -3.4156558 
C     1.6561492   -6.7874483   -2.1576449 
C    -0.5493574   -8.0259925   -1.8797932 
C     1.4628349   -1.0575901   -0.1401642 
C     2.2087209   -2.0068052    0.5772571 
C     3.5200675   -1.7472788    0.9845285 
C     2.0519108    0.2058842   -0.4445766 
C     3.3578684    0.4651412   -0.0024144 
C     4.1361620   -0.5097022    0.6953170 
O     3.8796306    1.7084623   -0.2649489 
C     5.3032437    1.7174536   -0.4114780 
C     5.9644971    1.1172989    0.8239663 
N     5.4458264   -0.2271507    1.0454415 
C     6.2732049   -1.2271718    1.7003894 
C     1.3721853    1.2650979   -1.2642446 
C     1.9240165    1.5873449   -2.5202521 
C     1.3638430    2.6019488   -3.3576479 
O     3.0319196    0.8817897   -2.9196387 
C     3.8324134    1.5020614   -3.9322203 
C     2.9599986    1.9964401   -5.0814872 
N     1.9870191    2.9379131   -4.5485917 
C     1.5355747    4.0641323   -5.3498418 
C     0.2110262    1.9662572   -0.8320505 
C    -0.3965999    2.9004563   -1.6947672 
C     0.1738938    3.2266887   -2.9242572 
C    -1.3456030    3.0681766    1.4561822 
C    -2.0155556    2.8704213    2.6754083 
C    -2.4103621    3.9411726    3.4860624 
C    -2.9767132    3.6673114    4.9016500 
C    -2.0065304    4.2875340    5.9430725 
C    -4.3993789    4.2469762    5.1035308 
C    -3.0599624    2.1490370    5.1863111 
C    -2.1711452    5.2623039    2.9928519 
O    -2.6272341    6.3156303    3.7625133 
C    -3.7970386    6.9955929    3.2960364 
C    -1.4124235    5.5002283    1.8122199 
C    -1.0294220    4.3696463    1.0602642 
C    -0.9300084    6.8847115    1.2893877 
C     0.4951560    6.7469739    0.6785998 
C    -1.8717469    7.3665108    0.1548465 
C    -0.8105684    7.9732166    2.3863351 
C     0.5972246    1.1880790    2.0218257 
C     0.4868285    0.0561197    2.8292814 
C     1.2968568   -0.1231212    3.9719180 
C     0.9656922   -1.3378903    4.8809271 
C     1.6799625   -1.3791506    6.2536373 
C     1.2770150   -2.6503935    4.1201223 
C    -0.5545126   -1.2720973    5.2074168 
C     2.2800119    0.8685543    4.2176160 
O     3.2135321    0.6816465    5.2232257 
C     4.3130368   -0.1411253    4.8213197 
C     2.3329137    2.0965202    3.4886022 
C     1.4931265    2.2127580    2.3749219 
C     3.1249700    3.3268229    4.0005402 
C     2.5369421    3.7090491    5.3866179 
C     2.9386046    4.5334732    3.0530240 
C     4.6471390    3.0877912    4.1476137 
H     4.1618944   -2.2400215   -6.5904589 
H     2.5289355   -1.8542138   -7.1930567 
H     3.3558932   -0.7241502   -6.1055958 
H     4.7049203   -2.7585438   -4.4395700 
H     3.8518238   -1.4294936   -3.5849052 
H     3.5555161   -3.1300086   -3.1422111 
H     2.1116178   -4.5668164   -4.4720658 
H     3.3354852   -4.4742056   -5.7678663 
H     1.6143186   -4.1831832   -6.1360263 
H     1.8772944   -2.3358551   -2.4858521 
H    -0.4928418   -2.1571759   -8.3253008 
H    -0.6979658   -3.0753356   -6.7876025 
H     0.8920243   -3.0645613   -7.6393462 
H    -3.3214201    1.8056335   -5.2572135 
H    -2.1190500    1.7778826   -3.9359631 
H    -3.3751737    0.5047517   -4.0503467 
H    -2.0764510   -1.0502689   -7.2547235 
H    -3.1923694   -1.3100200   -5.8824808 
H    -3.4077389    0.0920966   -6.9689867 
H    -0.2983397    0.8318969   -7.1260387 
H    -1.6332928    2.0131475   -6.9410707 
H    -0.3146665    1.9497697   -5.7317743 
H    -1.7519109   -0.1075876   -2.8237632 
H    -1.3599890   -2.8092087    1.5654211 
H    -2.7124280   -7.2092092    1.7979446 
H    -3.5808195   -6.5611372    3.2227043 
H    -3.8091901   -5.8048133    1.6250194 
H    -0.6696131   -7.0185048    3.3175233 
H    -1.4420765   -6.0674615    4.6031760 
H    -0.0155003   -5.4089180    3.7536422 
H    -3.1843490   -3.5330277    2.6093981 
H    -3.0540640   -4.3786383    4.1698537 
H    -1.7063127   -3.3666327    3.6050770 
H     1.2518625   -8.0096566    0.3726156 
H     1.1420377   -7.0599315    1.8975316 
H     0.4008645   -8.7007182    1.7953222 
H     0.2440166   -3.9707755   -2.2352503 
H     0.0899385   -5.1560009   -3.7231502 
H    -1.4868974   -5.9031750   -3.3754914 
H    -0.2032140   -6.8374736   -4.2048309 
H     1.9209059   -7.4666963   -2.9878101 
H     2.1315177   -5.8087626   -2.3480930 
H     2.0933321   -7.1952850   -1.2309291 
H    -1.6302154   -7.9253213   -1.6848307 
H    -0.1139029   -8.6217067   -1.0665440 
H    -0.4207066   -8.5989501   -2.8149384 
H     1.7657575   -2.9782667    0.8137448 
H     4.0664024   -2.5171913    1.5340556 
H     5.5830089    1.1439300   -1.3166191 
H     5.5909218    2.7716312   -0.5436027 
H     5.7769104    1.7743866    1.6966790 
H     7.0564791    1.0645944    0.6700334 
H     7.2927718   -0.8280024    1.8096827 
H     6.3256844   -2.1550701    1.0993981 
H     5.8976960   -1.4921090    2.7082328 
H     4.3940017    2.3478132   -3.4907763 
H     4.5415368    0.7292862   -4.2669764 
H     2.4651263    1.1369137   -5.5778608 
H     3.5891662    2.5074414   -5.8295396 
H     2.2987173    4.2804965   -6.1137426 
H     1.4172649    4.9610426   -4.7155332 
H     0.5741862    3.8739580   -5.8681994 
H    -1.3357297    3.3792888   -1.4068412 
H    -0.3189088    3.9637689   -3.5626988 
H    -2.1925680    1.8439538    3.0068510 
H    -1.0022853    3.8376390    5.8493078 
H    -1.9206183    5.3760928    5.8022767 
H    -2.3760264    4.0934462    6.9662458 
H    -4.8221179    3.8685558    6.0511020 
H    -4.3871843    5.3436621    5.1636737 
H    -5.0767241    3.9400450    4.2864820 
H    -2.0750406    1.6575971    5.1082596 
H    -3.7611231    1.6358945    4.5025961 
H    -3.4287014    1.9950459    6.2147853 
H    -3.9374535    7.8608163    3.9612573 
H    -4.6863805    6.3427445    3.3550106 
H    -3.6814268    7.3454334    2.2557599 
H    -0.4298810    4.5190118    0.1629925 
H     0.8582374    7.7466670    0.3845152 
H     1.2051282    6.3261818    1.4102481 
H     0.5193121    6.1180612   -0.2271587 
H    -2.9022467    7.5252368    0.5139211 
H    -1.9151076    6.6216521   -0.6593088 
H    -1.5072371    8.3216124   -0.2644624 
H    -0.2574228    7.5975944    3.2630833 
H    -0.2551931    8.8323881    1.9704212 
H    -1.7807716    8.3515526    2.7336256 
H    -0.2638160   -0.6987412    2.5701720 
H     1.2165714   -2.1810379    6.8562785 
H     2.7514304   -1.6134827    6.1747683 
H     1.5735362   -0.4298313    6.8007491 
H     0.7098976   -2.7249063    3.1769516 
H     1.0185424   -3.5226470    4.7463588 
H     2.3496168   -2.7137579    3.8667500 
H    -1.1866221   -1.2581374    4.3047383 
H    -0.7820427   -0.3638140    5.7914844 
H    -0.8476978   -2.1503700    5.8091026 
H     4.9751077   -0.2332651    5.6958740 
H     4.8644266    0.3199827    3.9812675 
H     3.9720775   -1.1458060    4.5066724 
H     1.5007057    3.1258331    1.7772336 
H     1.4590513    3.9328454    5.3012711 
H     2.6722348    2.8885098    6.1095772 
H     3.0460580    4.6077823    5.7792799 
H     3.3215596    4.3212479    2.0383643 
H     3.4939213    5.3997896    3.4516210 
H     1.8783343    4.8277278    2.9714944 
H     5.1478461    4.0443615    4.3800549 
H     4.8754496    2.3855699    4.9608845 
H     5.0817394    2.7040344    3.2082712 
