227
Energy =
C    -4.0411899    0.7467225    0.2206183 
C    -4.0970041   -0.2426239   -0.8091749 
C    -3.7529146   -1.5902234   -0.5542218 
H    -4.2600093    0.0809249   -1.8453950 
Pd   -2.0320090   -0.1714711   -0.0676343 
P    -0.2134325   -1.4525738   -0.8019689 
P    -0.6092053    1.5073910    0.6473859 
H    -4.2571274    0.4226608    1.2494698 
H    -3.8106117   -1.9270158    0.4922936 
C    -4.5351765    4.9639331   -0.5138018 
C    -4.9126216    4.4042495    0.7150444 
C    -4.7585460    3.0320321    0.9443228 
C    -4.2273193    2.1856801   -0.0518058 
C    -3.8562831    2.7626033   -1.2888708 
C    -4.0092024    4.1337026   -1.5175437 
H    -4.6484295    6.0385886   -0.6897505 
H    -5.3285726    5.0394095    1.5025069 
H    -5.0496430    2.6057449    1.9097815 
H    -3.4088130    2.1354158   -2.0663897 
H    -3.7070049    4.5591423   -2.4808113 
C    -3.7459519   -4.8698705   -3.3390130 
C    -3.7429884   -3.5521740   -3.8255691 
C    -3.7346163   -2.4704240   -2.9402660 
C    -3.7302269   -2.6815193   -1.5423534 
C    -3.7210543   -4.0134602   -1.0708247 
C    -3.7284139   -5.0966589   -1.9547450 
H    -3.7615745   -5.7129633   -4.0374407 
H    -3.7510461   -3.3676534   -4.9049338 
H    -3.7313362   -1.4542113   -3.3432031 
H    -3.7117528   -4.1946079    0.0070620 
H    -3.7202636   -6.1177838   -1.5593556 
C     2.3849516   -4.0614089   -5.4532798 
C     2.6159226   -2.5541609   -5.1678681 
C     3.1579193   -1.8471396   -6.4351898 
C     3.7433988   -2.4603755   -4.1005613 
C     1.3132054   -1.9094010   -4.6176237 
C     1.1154143   -1.9244290   -3.2254080 
C     0.2985168   -1.2805602   -5.3976410 
O     0.3541367   -1.2853987   -6.7793905 
C    -0.0476045   -2.4836374   -7.4572923 
C    -0.7698425   -0.5418441   -4.8018134 
C    -1.7220730    0.3573195   -5.6301109 
C    -2.6512842   -0.4825994   -6.5406875 
C    -0.8916906    1.3502212   -6.4833832 
C    -2.6236414    1.2100612   -4.7061213 
C    -0.9117879   -0.6196345   -3.4073800 
C    -0.0107766   -1.3489895   -2.6219039 
C    -0.4224102   -3.2234403   -0.3649462 
C    -1.0529100   -3.5357206    0.8536304 
C    -1.1880428   -4.8608345    1.2977379 
C    -2.0080822   -5.1895699    2.5723223 
C    -2.6590434   -3.9144124    3.1567958 
C    -3.1525649   -6.1746248    2.2095332 
C    -1.1354611   -5.8178922    3.6895251 
C    -0.6134537   -5.8835008    0.4817851 
O    -0.5971516   -7.1660981    0.9946173 
C     0.6760863   -7.5948313    1.4965227 
C    -0.1230565   -5.6199079   -0.8262344 
C    -0.0126011   -4.2659378   -1.2008888 
C     0.2973272   -6.6791320   -1.8831361 
C    -0.2506652   -8.1046463   -1.6258418 
C    -0.2689709   -6.2578155   -3.2688026 
C     1.8448066   -6.7168297   -1.9816056 
C     1.4749074   -1.0266757   -0.2302557 
C     2.2146463   -1.9368833    0.5430972 
C     3.5182018   -1.6542212    0.9588327 
C     2.0696350    0.2169850   -0.5978582 
C     3.3831516    0.4799095   -0.1862698 
C     4.1413557   -0.4367362    0.6016787 
O     3.9476568    1.6860485   -0.5351253 
C     5.3565365    1.5736403   -0.7768394 
C     6.0716859    1.0980268    0.4813965 
N     5.4245898   -0.1071477    0.9950204 
C     6.1627379   -0.9610027    1.9141627 
C     1.3666247    1.2815892   -1.3869110 
C     1.8745004    1.6178264   -2.6555234 
C     1.3139870    2.6714534   -3.4430961 
O     2.9398373    0.8864598   -3.1180902 
C     3.7181691    1.5110884   -4.1448612 
C     2.8138101    2.0467046   -5.2495061 
N     1.8841924    3.0011841   -4.6615752 
C     1.4299447    4.1557952   -5.4204233 
C     0.2461031    2.0057796   -0.8829554 
C    -0.3453820    3.0040994   -1.6823611 
C     0.1830767    3.3431218   -2.9281061 
C    -1.3199160    2.9874109    1.4755899 
C    -2.0606517    2.6929454    2.6332753 
C    -2.4748279    3.6909046    3.5224842 
C    -3.1263640    3.3036703    4.8726928 
C    -3.2600893    1.7686802    5.0088626 
C    -2.1978149    3.7985565    6.0146673 
C    -4.5418301    3.9061028    5.0564903 
C    -2.1707257    5.0433292    3.1743446 
O    -2.6720508    6.0416011    3.9890657 
C    -3.7888212    6.7669818    3.4622199 
C    -1.3244080    5.3675664    2.0793314 
C    -0.9366719    4.3073511    1.2321325 
C    -0.7283757    6.7661088    1.7502659 
C    -1.4162866    7.3251095    0.4781928 
C    -0.8158027    7.8129720    2.8886968 
C     0.7924688    6.5987466    1.4625340 
C     0.6267555    1.1278365    1.9496670 
C     0.4203593    0.0751548    2.8426494 
C     1.1447412   -0.0223620    4.0514670 
C     0.9415494   -1.3049313    4.9022358 
C    -0.4986600   -1.3356317    5.4730302 
C     1.9500725   -1.5075668    6.0593818 
C     1.1437472   -2.5232146    3.9586728 
C     2.0188131    1.0533470    4.3570687 
O     2.5664579    1.1679610    5.6224964 
C     1.6545979    1.6894707    6.5996157 
C     2.3785463    2.0410879    3.3898201 
C     1.6498892    2.0596444    2.1944367 
C     3.5471585    3.0301369    3.6148188 
C     3.8370174    3.8411696    2.3299719 
C     4.8230025    2.2215236    3.9693148 
C     3.2401612    4.0475631    4.7429649 
H     3.3141659   -4.5226571   -5.8335520 
H     2.0971112   -4.5891668   -4.5284295 
H     1.5911168   -4.2329783   -6.1963453 
H     4.1427405   -2.2747264   -6.6926948 
H     2.5025241   -1.9531106   -7.3090209 
H     3.2930565   -0.7674811   -6.2535628 
H     3.8502024   -1.4325965   -3.7160879 
H     4.6987191   -2.7748169   -4.5548639 
H     3.5650543   -3.1256547   -3.2385540 
H     1.8748747   -2.3724545   -2.5820734 
H     0.8235661   -3.1281635   -7.6743146 
H    -0.5037517   -2.1759867   -8.4122319 
H    -0.7839084   -3.0510796   -6.8607018 
H    -3.3828893    0.1776840   -7.0399426 
H    -3.2128035   -1.2267766   -5.9497414 
H    -2.0912559   -1.0097519   -7.3248891 
H    -0.2437254    1.9513867   -5.8250977 
H    -0.2589359    0.8238326   -7.2124476 
H    -1.5657789    2.0353697   -7.0283646 
H    -2.0251473    1.8237733   -4.0109271 
H    -3.2366868    1.8895701   -5.3225918 
H    -3.3221806    0.5910236   -4.1157412 
H    -1.7193180   -0.0863711   -2.8996433 
H    -1.4585791   -2.7148274    1.4514714 
H    -3.3183225   -3.4133759    2.4251595 
H    -3.2806509   -4.1902001    4.0254171 
H    -1.9081616   -3.1857553    3.5051383 
H    -3.8441571   -5.7267816    1.4745547 
H    -3.7364526   -6.4157718    3.1157516 
H    -2.7530781   -7.1108398    1.7917499 
H    -0.2283219   -5.2176746    3.8715464 
H    -1.7124296   -5.8572828    4.6307751 
H    -0.8391904   -6.8464886    3.4412426 
H     0.5079474   -8.5732826    1.9710939 
H     1.4169071   -7.7056283    0.6839203 
H     1.0692309   -6.8807812    2.2432382 
H     0.3938212   -4.0244570   -2.1838439 
H    -1.3343074   -8.0864795   -1.4239494 
H     0.2426704   -8.6184236   -0.7896403 
H    -0.0791318   -8.7135697   -2.5310888 
H     0.0221324   -7.0079135   -4.0245502 
H    -1.3684196   -6.1989305   -3.2390110 
H     0.1084635   -5.2822985   -3.6140270 
H     2.3066208   -7.0264172   -1.0283728 
H     2.2490679   -5.7222442   -2.2414574 
H     2.1617650   -7.4312803   -2.7623942 
H     1.7692627   -2.8958853    0.8218347 
H     4.0562812   -2.3925796    1.5576969 
H     5.5225181    0.8698406   -1.6156441 
H     5.7028739    2.5763967   -1.0693106 
H     6.0707759    1.9029854    1.2422191 
H     7.1265884    0.8728273    0.2340737 
H     6.4291878   -1.9339734    1.4546452 
H     5.5775821   -1.1544541    2.8321271 
H     7.0918749   -0.4485962    2.2055251 
H     4.3135392    2.3349986   -3.7064400 
H     4.3973928    0.7310110   -4.5215075 
H     2.2807791    1.2065885   -5.7400643 
H     3.4237784    2.5575254   -6.0132918 
H     0.4212134    4.0165041   -5.8587071 
H     2.1380511    4.3363609   -6.2437834 
H     1.4088945    5.0544583   -4.7773981 
H    -1.2427868    3.5211155   -1.3339751 
H    -0.2998659    4.1276522   -3.5154746 
H    -2.2853092    1.6447960    2.8483708 
H    -3.9355317    1.3419132    4.2447204 
H    -2.2842326    1.2588843    4.9344763 
H    -3.6871085    1.5296079    5.9979008 
H    -2.6231965    3.5205363    6.9961223 
H    -1.1993662    3.3342168    5.9268241 
H    -2.0822988    4.8931898    5.9810766 
H    -5.1857065    3.6889522    4.1856144 
H    -4.5028084    4.9933857    5.2083669 
H    -5.0203763    3.4627696    5.9477691 
H    -4.7021009    6.1444046    3.4681855 
H    -3.6003736    7.1111531    2.4296882 
H    -3.9375885    7.6355327    4.1214551 
H    -0.2813802    4.5228480    0.3863914 
H    -0.9725356    8.2969452    0.1963944 
H    -1.3029051    6.6323029   -0.3744278 
H    -2.4974206    7.4774120    0.6417522 
H    -0.4544156    7.4035030    3.8454796 
H    -1.8308851    8.2032380    3.0427794 
H    -0.1781504    8.6729977    2.6174731 
H     1.0023614    5.9579258    0.5904919 
H     1.2378643    7.5874156    1.2559560 
H     1.3062604    6.1666650    2.3387839 
H    -0.3318765   -0.6826333    2.5946634 
H    -0.6801463   -2.2833393    6.0109024 
H    -0.6656536   -0.5048245    6.1804173 
H    -1.2535833   -1.2479280    4.6727895 
H     2.9902831   -1.3890726    5.7162667 
H     1.8278760   -2.5350447    6.4465887 
H     1.7876410   -0.8219779    6.9026911 
H     2.1641753   -2.5191671    3.5401216 
H     0.4371257   -2.5383738    3.1140995 
H     1.0053706   -3.4582457    4.5288053 
H     2.2098082    1.7389194    7.5484559 
H     0.7719172    1.0351919    6.7216483 
H     1.3083156    2.7006805    6.3170699 
H     1.8456529    2.8310455    1.4458435 
H     4.0147902    3.1895993    1.4585283 
H     3.0070159    4.5237396    2.0788167 
H     4.7360544    4.4616452    2.4902329 
H     4.6977172    1.6804682    4.9194814 
H     5.6893069    2.9012850    4.0629424 
H     5.0394844    1.4851758    3.1766993 
H     4.0241784    4.8258349    4.7636384 
H     2.2694911    4.5458100    4.5707981 
H     3.2239049    3.5676100    5.7317645 
