227
Energy =
C    -4.0564618    0.5989186    0.2563149 
C    -4.0655333   -0.3461583   -0.8153529 
C    -3.6853765   -1.6947765   -0.6171446 
H    -4.2183618    0.0209467   -1.8386735 
Pd   -2.0123317   -0.2374558   -0.0511787 
P    -0.1817620   -1.4868854   -0.7953263 
P    -0.6049045    1.4685252    0.6466675 
H    -4.2706026    0.2220914    1.2677015 
H    -3.7574970   -2.0886638    0.4080894 
C    -4.6942213    4.8238648   -0.2966117 
C    -5.1034382    4.1890559    0.8842841 
C    -4.9003687    2.8144924    1.0555172 
C    -4.2923031    2.0408153    0.0450509 
C    -3.8913891    2.6925293   -1.1446286 
C    -4.0887530    4.0662301   -1.3132689 
H    -4.8432354    5.9008752   -0.4255823 
H    -5.5816096    4.7671285    1.6807276 
H    -5.2137535    2.3298157    1.9862163 
H    -3.3835108    2.1217300   -1.9285121 
H    -3.7596521    4.5518633   -2.2385200 
C    -3.2556969   -4.7860056   -3.5876825 
C    -3.3677000   -3.4466413   -3.9930264 
C    -3.5306694   -2.4318782   -3.0456107 
C    -3.5730865   -2.7273694   -1.6634953 
C    -3.4823911   -4.0833445   -1.2744773 
C    -3.3259697   -5.0989955   -2.2229700 
H    -3.1217589   -5.5793756   -4.3304150 
H    -3.3233495   -3.1904861   -5.0565266 
H    -3.6116835   -1.3974968   -3.3879313 
H    -3.5220679   -4.3373278   -0.2115226 
H    -3.2533791   -6.1392357   -1.8946886 
C     2.1845221   -4.1089622   -5.5568234 
C     2.4848080   -2.6150252   -5.2637643 
C     3.0124702   -1.9106802   -6.5384704 
C     3.6496173   -2.5716205   -4.2338973 
C     1.2245172   -1.9338792   -4.6636018 
C     1.0683960   -1.9697646   -3.2663259 
C     0.2096567   -1.2576379   -5.4017630 
O     0.2210713   -1.2425365   -6.7847085 
C    -0.2402433   -2.4171430   -7.4659218 
C    -0.8110872   -0.4900222   -4.7615348 
C    -1.7530044    0.4579120   -5.5477188 
C    -2.6116684    1.3115432   -4.5853855 
C    -2.7273604   -0.3200750   -6.4659418 
C    -0.9056843    1.4442487   -6.3913977 
C    -0.9097882   -0.5861302   -3.3647770 
C    -0.0183382   -1.3691303   -2.6188523 
C    -0.3843139   -3.2502359   -0.3244172 
C     0.1242049   -4.3111105   -1.0776559 
C     0.0146969   -5.6521682   -0.6595140 
C     0.8144909   -6.7002300   -1.4843542 
C     1.0397218   -8.0604663   -0.7782577 
C     0.1260448   -6.9236692   -2.8552283 
C     2.2408194   -6.1260707   -1.7352491 
C    -0.7702236   -5.9011016    0.5006742 
O    -1.0559681   -7.1950626    0.8888566 
C    -2.0501723   -7.8737666    0.1117959 
C    -1.2482582   -4.8438760    1.3350774 
C    -1.0239001   -3.5285162    0.8970820 
C    -1.9411786   -5.1090963    2.6958700 
C    -3.2318403   -5.9576821    2.5556274 
C    -0.9423487   -5.8445757    3.6279464 
C    -2.3549823   -3.7856450    3.3784629 
C     1.5065635   -1.0499431   -0.2389122 
C     2.2588471   -1.9476543    0.5378783 
C     3.5605388   -1.6482203    0.9467229 
C     2.0847499    0.1985586   -0.6141812 
C     3.3989933    0.4757858   -0.2138188 
C     4.1690569   -0.4265078    0.5789096 
O     3.9540461    1.6817925   -0.5781850 
C     5.3613855    1.5724552   -0.8311191 
C     6.0901007    1.1177560    0.4267763 
N     5.4483990   -0.0782202    0.9680773 
C     6.1949320   -0.9099629    1.9007973 
C     1.3656660    1.2560035   -1.3979857 
C     1.8714820    1.5972571   -2.6659536 
C     1.3227588    2.6668499   -3.4391913 
O     2.9252570    0.8560978   -3.1383592 
C     3.7068464    1.4727628   -4.1674355 
C     2.8051367    2.0403864   -5.2581346 
N     1.9006080    3.0075804   -4.6513655 
C     1.4682670    4.1827400   -5.3913682 
C     0.2419170    1.9739970   -0.8893864 
C    -0.3427020    2.9830700   -1.6801807 
C     0.1956743    3.3394092   -2.9174721 
C    -1.3388729    2.9410346    1.4685023 
C    -2.0863185    2.6368762    2.6191514 
C    -2.5090950    3.6280695    3.5120887 
C    -3.1557611    3.2304566    4.8616912 
C    -2.2272996    3.7288580    6.0023676 
C    -4.5751065    3.8207791    5.0534314 
C    -3.2766661    1.6939180    4.9926164 
C    -2.2154329    4.9838188    3.1693214 
O    -2.7323643    5.9761495    3.9815905 
C    -3.8570659    6.6846927    3.4479774 
C    -1.3660114    5.3191948    2.0799477 
C    -0.9609822    4.2646423    1.2344452 
C    -0.7876512    6.7257979    1.7535419 
C    -1.4760115    7.2729653    0.4764204 
C    -0.8978857    7.7731167    2.8895497 
C     0.7369623    6.5810028    1.4750164 
C     0.6606599    1.1352489    1.9350595 
C     0.4947360    0.0983344    2.8542158 
C     1.2471479    0.0420940    4.0489466 
C     1.0916591   -1.2247401    4.9317433 
C     2.1298696   -1.3805895    6.0698116 
C     1.3031157   -2.4588788    4.0104689 
C    -0.3337617   -1.2681096    5.5380149 
C     2.1014113    1.1433501    4.3149087 
O     2.6673423    1.2997983    5.5676914 
C     1.7602076    1.8233647    6.5481137 
C     2.4220607    2.1159474    3.3193851 
C     1.6706262    2.0919454    2.1382837 
C     3.5728878    3.1342103    3.5022363 
C     3.8319851    3.9132523    2.1913260 
C     4.8695532    2.3635520    3.8658116 
C     3.2557911    4.1764725    4.6046918 
H     3.0906395   -4.6121548   -5.9397272 
H     1.8686924   -4.6273981   -4.6351814 
H     1.3843405   -4.2371607   -6.3018001 
H     3.9683947   -2.3752599   -6.8374114 
H     2.3235290   -1.9722315   -7.3903740 
H     3.2008053   -0.8410437   -6.3429902 
H     3.8039223   -1.5512685   -3.8446904 
H     4.5783302   -2.9117263   -4.7232913 
H     3.4802093   -3.2392597   -3.3723125 
H     1.8358548   -2.4486811   -2.6557438 
H     0.6036477   -3.0803475   -7.7294700 
H    -0.7266249   -2.0811601   -8.3961166 
H    -0.9662831   -2.9758073   -6.8487761 
H    -3.2161619    2.0243251   -5.1719568 
H    -1.9846389    1.8889497   -3.8852545 
H    -3.3172001    0.6962436   -3.9994375 
H    -2.2004026   -0.8607719   -7.2632368 
H    -3.3268131   -1.0425414   -5.8861966 
H    -3.4265295    0.3861725   -6.9484259 
H    -0.3037421    0.9146232   -7.1440802 
H    -1.5662295    2.1634530   -6.9084136 
H    -0.2276697    2.0076375   -5.7309616 
H    -1.6780792   -0.0292531   -2.8220093 
H     0.6388403   -4.0954680   -2.0149500 
H     0.1370367   -8.6847037   -0.7328611 
H     1.7952319   -8.6272364   -1.3504053 
H     1.4155496   -7.9248772    0.2486355 
H    -0.8770676   -7.3682762   -2.7359820 
H     0.7292982   -7.6067032   -3.4796866 
H     0.0033504   -5.9719954   -3.4014929 
H     2.7488617   -5.9073871   -0.7798178 
H     2.8443667   -6.8676968   -2.2866531 
H     2.2322025   -5.2018092   -2.3349777 
H    -2.1192003   -8.8930863    0.5200821 
H    -3.0317744   -7.3742214    0.2020398 
H    -1.7708212   -7.9247781   -0.9552466 
H    -1.3873386   -2.6862556    1.4924894 
H    -3.0097927   -7.0041120    2.3082029 
H    -3.9075670   -5.5415458    1.7869377 
H    -3.7770073   -5.9538590    3.5159850 
H    -1.4082381   -6.0259155    4.6134024 
H    -0.6468271   -6.8137147    3.1968056 
H    -0.0351782   -5.2360100    3.7823413 
H    -3.1007748   -3.2289083    2.7816022 
H    -1.4938203   -3.1256481    3.5631924 
H    -2.8127347   -4.0093200    4.3569123 
H     1.8259935   -2.9096645    0.8253190 
H     4.1088666   -2.3772697    1.5476442 
H     5.5227172    0.8577809   -1.6615677 
H     5.7005649    2.5725298   -1.1406740 
H     6.0971120    1.9348690    1.1743017 
H     7.1425211    0.8887749    0.1716408 
H     6.4883374   -1.8802524    1.4519633 
H     5.6028450   -1.1089874    2.8128093 
H     7.1088442   -0.3748218    2.1997155 
H     4.3251272    2.2787196   -3.7276618 
H     4.3642250    0.6809488   -4.5583473 
H     2.2505726    1.2176754   -5.7545104 
H     3.4197891    2.5474636   -6.0205509 
H     0.4630801    4.0650397   -5.8439972 
H     2.1883336    4.3724819   -6.2023420 
H     1.4506494    5.0672614   -4.7292434 
H    -1.2404348    3.4984404   -1.3298552 
H    -0.2795594    4.1354191   -3.4956362 
H    -2.3078812    1.5863929    2.8264499 
H    -1.2250234    3.2737698    5.9091607 
H    -2.1217888    4.8246869    5.9724961 
H    -2.6465918    3.4434140    6.9843215 
H    -5.0447892    3.3727689    5.9471017 
H    -4.5442731    4.9082614    5.2057118 
H    -5.2212873    3.5984004    4.1859402 
H    -2.2966334    1.1924162    4.9162073 
H    -3.9488284    1.2645489    4.2271964 
H    -3.7009962    1.4479233    5.9811051 
H    -4.7642174    6.0539323    3.4635540 
H    -3.6742168    7.0158366    2.4101745 
H    -4.0123376    7.5606770    4.0958550 
H    -0.2984973    4.4878026    0.3963515 
H    -1.0474441    8.2525507    0.1979294 
H    -1.3434426    6.5825737   -0.3754488 
H    -2.5608940    7.4060437    0.6318164 
H    -0.5374411    7.3705383    3.8495568 
H    -1.9195964    8.1488599    3.0355995 
H    -0.2707927    8.6417817    2.6211762 
H     0.9614419    5.9416602    0.6054814 
H     1.1687003    7.5757659    1.2686859 
H     1.2521631    6.1586275    2.3549740 
H    -0.2475842   -0.6792578    2.6401670 
H     2.0409930   -2.4029594    6.4789318 
H     3.1592087   -1.2444999    5.7012554 
H     1.9696886   -0.6824586    6.9032834 
H     0.6032013   -2.4909162    3.1607532 
H     1.1671660   -3.3857232    4.5942580 
H     2.3253229   -2.4551955    3.5961317 
H    -1.1100433   -1.2077320    4.7564688 
H    -0.4956219   -0.4254915    6.2326111 
H    -0.4867914   -2.2072851    6.0990260 
H     0.9029316    1.1449058    6.7119459 
H     1.3739395    2.8127647    6.2410193 
H     2.3343515    1.9221180    7.4817098 
H     1.8378799    2.8489731    1.3683103 
H     4.0134529    3.2396909    1.3376336 
H     2.9856752    4.5712690    1.9300579 
H     4.7196657    4.5563647    2.3233128 
H     4.7693322    1.8544742    4.8362674 
H     5.7234938    3.0628073    3.9213749 
H     5.0884960    1.6029869    3.0971659 
H     4.0235535    4.9709885    4.5958170 
H     2.2731793    4.6493406    4.4290410 
H     3.2588935    3.7241539    5.6066197 
