227
Energy =
C    -4.0176836    0.8418795    0.0411315 
C    -4.0423777   -0.1306616   -1.0066253 
C    -3.7294984   -1.4858152   -0.7538768 
H    -4.1541123    0.2087426   -2.0444192 
Pd   -2.0097521   -0.0999781   -0.1752440 
P    -0.1895391   -1.4010394   -0.8671561 
P    -0.5992079    1.5344564    0.6518594 
H    -4.2787041    0.5035406    1.0547196 
H    -3.8361912   -1.8305975    0.2858551 
C    -4.4418744    5.0779345   -0.6316109 
C    -3.9397432    4.2531405   -1.6513095 
C    -3.8047034    2.8765198   -1.4427237 
C    -4.1751845    2.2877858   -0.2108658 
C    -4.6838385    3.1298263    0.8020089 
C    -4.8153630    4.5074292    0.5939464 
H    -4.5403975    6.1564702   -0.7919102 
H    -3.6405295    4.6863354   -2.6120826 
H    -3.3731787    2.2562019   -2.2345174 
H    -4.9745678    2.6954691    1.7636518 
H    -5.2125641    5.1386875    1.3938480 
C    -3.5266511   -4.7525878   -3.5459150 
C    -3.5787525   -4.9836497   -2.1632744 
C    -3.6421628   -3.9045546   -1.2771655 
C    -3.6600903   -2.5711431   -1.7455353 
C    -3.6124287   -2.3553060   -3.1417681 
C    -3.5432722   -3.4337952   -4.0286212 
H    -3.4747330   -5.5933576   -4.2454535 
H    -3.5676581   -6.0053675   -1.7696714 
H    -3.6765986   -4.0900955   -0.2003855 
H    -3.6241621   -1.3381559   -3.5418333 
H    -3.5040496   -3.2452818   -5.1066227 
C     2.2834079   -4.3313479   -5.3115887 
C     2.5556523   -2.8082084   -5.2044973 
C     3.0603372   -2.2683235   -6.5665096 
C     3.7243009   -2.6211796   -4.1934568 
C     1.2903559   -2.0776939   -4.6730800 
C     1.1046579   -2.0295789   -3.2794522 
C     0.3070410   -1.4187416   -5.4680250 
O     0.3317193   -1.5077046   -6.8472824 
C    -0.1988897   -2.7150551   -7.4111297 
C    -0.6914644   -0.5736889   -4.8940178 
C    -1.5535821    0.3883895   -5.7505420 
C    -0.6221884    1.2846843   -6.6094186 
C    -2.3904407    1.3285178   -4.8511367 
C    -2.5415104   -0.3731867   -6.6689848 
C    -0.8299501   -0.5974448   -3.4966501 
C     0.0169321   -1.3702395   -2.6910226 
C    -0.4261027   -3.1422618   -0.3345556 
C    -1.1386130   -3.3638280    0.8592033 
C    -1.3114680   -4.6500124    1.3932784 
C    -2.2409872   -4.8836021    2.6126176 
C    -2.9426274   -3.5710286    3.0318409 
C    -3.3458349   -5.9013830    2.2184285 
C    -1.4822443   -5.4185250    3.8535327 
C    -0.6759958   -5.7285193    0.7051537 
O    -0.6723225   -6.9637212    1.3235170 
C     0.5727616   -7.2978698    1.9531715 
C    -0.1011577   -5.5666896   -0.5844494 
C     0.0330854   -4.2458978   -1.0591809 
C     0.3871935   -6.7011220   -1.5280102 
C    -0.0688318   -8.1294413   -1.1420536 
C    -0.1969743   -6.4483858   -2.9470782 
C     1.9355798   -6.6580977   -1.6103542 
C     1.5029379   -0.9630472   -0.3217479 
C     2.2857347   -1.8842166    0.3942738 
C     3.6030820   -1.5967727    0.7634915 
C     2.0652199    0.2998148   -0.6726933 
C     3.3856887    0.5736154   -0.2948672 
C     4.1931837   -0.3585089    0.4220920 
O     3.9105507    1.8046517   -0.6120716 
C     5.3039678    1.7267782   -0.9405747 
C     6.0943198    1.2099770    0.2558819 
N     5.4879701   -0.0196723    0.7644577 
C     6.2844445   -0.8917714    1.6150626 
C     1.3352165    1.3784740   -1.4168288 
C     1.8052181    1.7365070   -2.6948799 
C     1.2276482    2.8109023   -3.4406938 
O     2.8686789    1.0275638   -3.1921448 
C     3.0657053    1.1317653   -4.6077529 
C     3.0408410    2.5887998   -5.0453498 
N     1.7507894    3.1575703   -4.6805540 
C     1.3057280    4.3687669   -5.3531473 
C     0.2379369    2.1012701   -0.8628569 
C    -0.3705598    3.1204232   -1.6196832 
C     0.1258282    3.4856856   -2.8716060 
C    -1.3464484    2.9539536    1.5444501 
C    -2.1069883    2.5782196    2.6649300 
C    -2.5590284    3.5143184    3.6014757 
C    -3.2292356    3.0355418    4.9126469 
C    -4.6596655    3.5998943    5.1016572 
C    -3.3367074    1.4927709    4.9548551 
C    -2.3317824    3.4778540    6.1002867 
C    -2.2714876    4.8897817    3.3397637 
O    -2.8091944    5.8281153    4.2010758 
C    -3.9316681    6.5581253    3.6934337 
C    -1.4071297    5.2929386    2.2853177 
C    -0.9817692    4.2917146    1.3857473 
C    -0.8286605    6.7184219    2.0571539 
C    -0.9497237    7.6853614    3.2613487 
C     0.6987261    6.5925584    1.7827249 
C    -1.5058138    7.3499982    0.8136840 
C     0.6581491    1.1253618    1.9237777 
C     0.4895276    0.0398273    2.7850633 
C     1.2525719   -0.0903188    3.9668861 
C     1.0989591   -1.4062710    4.7766983 
C     1.2794698   -2.5847997    3.7795440 
C    -0.3163150   -1.4792835    5.4022105 
C     2.1561343   -1.6355763    5.8844385 
C     2.1235142    0.9850145    4.2831736 
O     2.7090918    1.0631330    5.5341634 
C     1.8207054    1.5395398    6.5551589 
C     2.4435904    2.0092143    3.3408846 
C     1.6782581    2.0602922    2.1697090 
C     3.6138243    2.9972780    3.5619255 
C     3.3464250    3.9654151    4.7422656 
C     3.8513295    3.8616902    2.3014542 
C     4.9055271    2.1812746    3.8329341 
H     3.1852322   -4.8548946   -5.6766736 
H     2.0223279   -4.7499782   -4.3251559 
H     1.4543421   -4.5590892   -6.0008069 
H     4.0501979   -2.7089635   -6.7793162 
H     2.3969434   -2.5181694   -7.4047684 
H     3.1720012   -1.1714720   -6.5469821 
H     3.8738900   -1.5600099   -3.9335631 
H     4.6556910   -3.0104401   -4.6390276 
H     3.5628832   -3.1752849   -3.2534012 
H     1.8451945   -2.4956886   -2.6263975 
H    -0.4680190   -2.4829928   -8.4533040 
H    -1.0960981   -3.0497994   -6.8595643 
H     0.5516393   -3.5262082   -7.4079770 
H    -1.2263596    2.0095640   -7.1846264 
H    -0.0336204    0.6815574   -7.3167885 
H     0.0721829    1.8462241   -5.9614071 
H    -3.1489649    0.7773879   -4.2668438 
H    -1.7558982    1.8990872   -4.1513258 
H    -2.9335611    2.0496193   -5.4858387 
H    -3.1697078   -1.0688067   -6.0861015 
H    -3.2118587    0.3468511   -7.1715358 
H    -2.0194270   -0.9402054   -7.4517537 
H    -1.5933652    0.0097799   -3.0029309 
H    -1.5803236   -2.4990953    1.3630888 
H    -3.5388508   -3.1396649    2.2079382 
H    -3.6340922   -3.7791477    3.8657192 
H    -2.2253492   -2.8078780    3.3787786 
H    -3.9542551   -5.5218311    1.3786995 
H    -4.0220962   -6.0675712    3.0758907 
H    -2.9079095   -6.8679057    1.9266042 
H    -0.6169791   -4.7804226    4.0965378 
H    -2.1595467   -5.4198952    4.7261561 
H    -1.1363329   -6.4505075    3.7024394 
H     1.3919727   -7.3754739    1.2150503 
H     0.8483317   -6.5422802    2.7119598 
H     0.4228751   -8.2741236    2.4380795 
H     0.5028154   -4.0830103   -2.0304336 
H    -1.1530256   -8.1699352   -0.9501354 
H     0.4505273   -8.5285950   -0.2597216 
H     0.1578441   -8.8047973   -1.9861460 
H     0.1953118   -7.2083684   -3.6453520 
H    -1.2957248   -6.5258455   -2.9316867 
H     0.0602735   -5.4582192   -3.3548983 
H     2.3959880   -6.8386825   -0.6232437 
H     2.2918040   -5.6769940   -1.9713641 
H     2.3041463   -7.4329298   -2.3061912 
H     1.8635837   -2.8564028    0.6632653 
H     4.1755958   -2.3463308    1.3148501 
H     5.4263180    1.0660610   -1.8204116 
H     5.6193082    2.7469545   -1.2064105 
H     6.1311051    1.9858837    1.0458128 
H     7.1350979    1.0038886   -0.0590667 
H     6.5457958   -1.8422348    1.1077930 
H     5.7472168   -1.1297173    2.5516658 
H     7.2172351   -0.3723797    1.8814542 
H     4.0430414    0.6695507   -4.8112371 
H     2.2759639    0.5588932   -5.1278743 
H     3.1617021    2.6456074   -6.1408853 
H     3.8862105    3.1392193   -4.5781715 
H     1.8052724    4.4302228   -6.3318512 
H     1.5424868    5.2862189   -4.7754213 
H     0.2164169    4.3377810   -5.5321902 
H    -1.2475240    3.6416732   -1.2294107 
H    -0.3490903    4.3090753   -3.4093195 
H    -2.3175217    1.5152841    2.8116646 
H    -4.6458259    4.6771193    5.3165887 
H    -5.2818135    3.4211376    4.2063441 
H    -5.1467083    3.0966307    5.9556760 
H    -3.7808277    1.1883761    5.9180310 
H    -3.9871254    1.1003810    4.1515264 
H    -2.3498528    1.0051451    4.8739355 
H    -2.2374368    4.5745180    6.1346601 
H    -1.3225212    3.0383028    6.0046417 
H    -2.7697346    3.1331833    7.0546253 
H    -4.8179996    5.9043511    3.5979112 
H    -3.7131950    7.0082736    2.7085202 
H    -4.1434686    7.3533054    4.4241190 
H    -0.3141452    4.5667933    0.5670169 
H    -0.3230275    8.5715723    3.0575270 
H    -1.9733933    8.0475908    3.4268236 
H    -0.5943908    7.2184977    4.1938811 
H     0.9302731    6.0216479    0.8686013 
H     1.2060206    6.1027700    2.6321132 
H     1.1330395    7.5994774    1.6568034 
H    -2.5910808    7.4779142    0.9700375 
H    -1.0709722    8.3434411    0.6020297 
H    -1.3711820    6.7150388   -0.0798379 
H    -0.2575119   -0.7206886    2.5316542 
H     1.2109631   -3.5435168    4.3228121 
H     0.5187279   -2.5974666    2.9830599 
H     2.2701085   -2.5307785    3.2983267 
H    -0.4671149   -0.6780128    6.1463349 
H    -0.4656055   -2.4493651    5.9093551 
H    -1.1018562   -1.3723963    4.6346870 
H     2.0213437   -0.9809325    6.7565635 
H     3.1801356   -1.4929829    5.5035612 
H     2.0609625   -2.6770792    6.2405796 
H     2.4093392    1.5842886    7.4839104 
H     0.9611067    0.8585721    6.6954480 
H     1.4370489    2.5466019    6.3073791 
H     1.8463703    2.8564163    1.4404709 
H     2.3678740    4.4650093    4.6281203 
H     3.3702530    3.4453964    5.7103744 
H     4.1271686    4.7469049    4.7644994 
H     4.0065654    3.2466038    1.3996349 
H     4.7494188    4.4850225    2.4561298 
H     3.0067124    4.5449049    2.1063009 
H     5.7715061    2.8615844    3.9257868 
H     4.8176481    1.5976225    4.7620537 
H     5.0963536    1.4829003    3.0001007 
