227
Energy =
C    -4.0049708    0.8620291    0.0797457 
C    -4.0364244   -0.0934013   -0.9827987 
C    -3.7355322   -1.4542162   -0.7457655 
H    -4.1512169    0.2598849   -2.0154614 
Pd   -1.9987154   -0.0883396   -0.1606329 
P    -0.2084706   -1.4236237   -0.8909974 
P    -0.5813020    1.5541551    0.6560094 
H    -4.2527074    0.5017685    1.0892341 
H    -3.8447048   -1.8076981    0.2906492 
C    -4.5053426    5.1038364   -0.4825888 
C    -4.0286806    4.3102257   -1.5396258 
C    -3.8583065    2.9324367   -1.3676656 
C    -4.1777004    2.3112125   -0.1372977 
C    -4.6554668    3.1242231    0.9137667 
C    -4.8101619    4.5053223    0.7483787 
H    -4.6342405    6.1826479   -0.6173850 
H    -3.7784903    4.7705955   -2.5017101 
H    -3.4505461    2.3365859   -2.1905572 
H    -4.9064495    2.6622797    1.8731865 
H    -5.1681229    5.1144437    1.5845967 
C    -3.5454911   -4.6963244   -3.5676089 
C    -3.6167791   -4.9401736   -2.1880578 
C    -3.6803350   -3.8692231   -1.2923455 
C    -3.6778308   -2.5309557   -1.7475428 
C    -3.6176086   -2.3025217   -3.1411544 
C    -3.5482276   -3.3729613   -4.0377409 
H    -3.4903380   -5.5308954   -4.2742546 
H    -3.6201426   -5.9656190   -1.8042727 
H    -3.7297094   -4.0656394   -0.2182022 
H    -3.6174208   -1.2817388   -3.5314629 
H    -3.4962362   -3.1740225   -5.1132739 
C     3.6027025   -2.8314871   -4.2677699 
C     2.4255822   -2.8904276   -5.2830383 
C     2.0562873   -4.3866377   -5.4615362 
C     2.9665572   -2.3160636   -6.6168434 
C     1.2053537   -2.1081406   -4.7212544 
C     1.0483197   -2.0563916   -3.3238244 
C     0.2291740   -1.4155882   -5.4973526 
O     0.2359847   -1.4841787   -6.8777403 
C    -0.3241682   -2.6624382   -7.4737052 
C    -0.7392441   -0.5503971   -4.9019093 
C    -1.5960255    0.4337573   -5.7382342 
C    -2.4105813    1.3763990   -4.8210345 
C    -2.6071839   -0.3013100   -6.6528539 
C    -0.6566987    1.3222390   -6.5964882 
C    -0.8543118   -0.5768502   -3.5026282 
C    -0.0124406   -1.3723413   -2.7144103 
C    -0.4687066   -3.1681480   -0.3767041 
C    -0.0109342   -4.2675161   -1.1088238 
C    -0.1266879   -5.5899177   -0.6333428 
C     0.3656190   -6.7172088   -1.5826809 
C    -0.2946107   -6.5013663   -2.9742228 
C     1.9062869   -6.6153277   -1.7312036 
C    -0.0095173   -8.1595730   -1.1649296 
C    -0.6930592   -5.7577708    0.6580015 
O    -0.6546297   -6.9891330    1.2833400 
C     0.6003232   -7.2751123    1.9167636 
C    -1.3485455   -4.6891054    1.3425434 
C    -1.1790895   -3.3983302    0.8177144 
C    -2.2928956   -4.9441409    2.5458387 
C    -3.3456888   -6.0143903    2.1473046 
C    -1.5322761   -5.4224023    3.8078479 
C    -3.0640583   -3.6591915    2.9264919 
C     1.4898122   -1.0292084   -0.3249417 
C     2.2372891   -1.9658341    0.4070853 
C     3.5207680   -1.6620411    0.8702096 
C     2.0473476    0.2527621   -0.5883775 
C     3.3252031    0.5571432   -0.0887649 
C     4.0947624   -0.3929561    0.6493101 
O     3.7994124    1.8120306   -0.3582255 
C     4.9296835    2.2334688    0.4087298 
C     5.9744187    1.1289920    0.4868307 
N     5.3668283   -0.0452014    1.1056897 
C     6.2649608   -1.0826048    1.5916868 
C     1.3558525    1.3242981   -1.3797732 
C     1.8587412    1.6339924   -2.6568421 
C     1.3156762    2.6971774   -3.4439999 
O     2.9175846    0.8911196   -3.1042423 
C     3.1737815    0.9769837   -4.5107198 
C     3.1877304    2.4287752   -4.9662176 
N     1.8879075    3.0160807   -4.6702229 
C     1.5036988    4.2375609   -5.3621963 
C     0.2554231    2.0718842   -0.8749520 
C    -0.3392638    3.0595718   -1.6833640 
C     0.1973740    3.3877742   -2.9294611 
C    -1.3000339    3.0119857    1.5022989 
C    -2.0557723    2.7026949    2.6444386 
C    -2.4478865    3.6858099    3.5602108 
C    -3.2612663    3.2869370    4.8162327 
C    -2.4363661    3.5458711    6.1037307 
C    -4.5973241    4.0734683    4.8673715 
C    -3.6112569    1.7792046    4.8057552 
C    -2.0740529    5.0364387    3.2751361 
O    -2.4279911    5.9828108    4.2162682 
C    -1.3979090    6.5805759    5.0137929 
C    -1.4338399    5.3997243    2.0552801 
C    -1.0059789    4.3468619    1.2199537 
C    -1.1855859    6.8517026    1.5616071 
C    -1.1426112    6.8851171    0.0074395 
C    -2.3311876    7.8111544    1.9725802 
C     0.1883465    7.3728422    2.0583910 
C     0.6760884    1.1540430    1.9387507 
C     1.5340717    2.1887738    2.3568781 
C     2.3603716    2.0438718    3.4767154 
C     3.0734810    3.2771424    4.0902089 
C     4.6007021    3.1051944    4.2909721 
C     2.4122862    3.5369373    5.4728775 
C     2.8518021    4.5363904    3.2201921 
C     2.3458216    0.7752956    4.1360248 
O     3.2773252    0.5706520    5.1389733 
C     4.4207479   -0.1680991    4.6926641 
C     1.4011823   -0.2344104    3.8261840 
C     0.5943455   -0.0211023    2.6854594 
C     1.1048818   -1.5018724    4.6734816 
C     1.4695373   -2.7680475    3.8594879 
C    -0.4201136   -1.5056776    4.9797392 
C     1.8056471   -1.5780530    6.0515999 
H     4.5053940   -3.2606809   -4.7349820 
H     3.8260988   -1.7970197   -3.9576425 
H     3.4039362   -3.4200217   -3.3559982 
H     2.9252870   -4.9494093   -5.8474404 
H     1.7639709   -4.8310749   -4.4955784 
H     1.2186911   -4.5309433   -6.1616382 
H     2.2767048   -2.4513613   -7.4596994 
H     3.9128310   -2.8264915   -6.8682795 
H     3.1751480   -1.2365297   -6.5302047 
H     1.7879816   -2.5425394   -2.6849628 
H     0.4452404   -3.4427555   -7.6169260 
H    -0.7139206   -2.3663403   -8.4606335 
H    -1.1455127   -3.0682417   -6.8561948 
H    -2.9511505    2.1099253   -5.4434644 
H    -1.7622580    1.9320359   -4.1224915 
H    -3.1699458    0.8290298   -4.2340185 
H    -2.1054368   -0.8778297   -7.4414845 
H    -3.2481045   -0.9838704   -6.0682686 
H    -3.2639621    0.4363113   -7.1476590 
H    -0.1013043    0.7181140   -7.3293132 
H    -1.2495393    2.0789452   -7.1416197 
H     0.0705110    1.8433422   -5.9510048 
H    -1.5956363    0.0451831   -2.9938435 
H     0.4493653   -4.0999469   -2.0840382 
H    -0.1220713   -5.4945054   -3.3861667 
H     0.1131556   -7.2336920   -3.6930057 
H    -1.3843282   -6.6507771   -2.9090818 
H     2.2119177   -5.6282755   -2.1207057 
H     2.2754642   -7.3867589   -2.4304007 
H     2.4116416   -6.7637451   -0.7606932 
H    -1.0825885   -8.2498357   -0.9334088 
H     0.2199935   -8.8335241   -2.0094655 
H     0.5607803   -8.5220962   -0.2978910 
H     0.8397982   -6.5140633    2.6827093 
H     0.4901192   -8.2606456    2.3934593 
H     1.4256278   -7.3109819    1.1817255 
H    -1.6228160   -2.5387354    1.3293362 
H    -2.8650998   -6.9705976    1.8922962 
H    -3.9432250   -5.6784176    1.2814298 
H    -4.0394851   -6.1842712    2.9898675 
H    -2.2251204   -5.4538441    4.6676164 
H    -1.1241667   -6.4341854    3.6744175 
H    -0.7093084   -4.7333314    4.0587983 
H    -3.6562462   -3.2685381    2.0797427 
H    -2.3946390   -2.8585838    3.2818533 
H    -3.7685641   -3.8876367    3.7439817 
H     1.8213688   -2.9561748    0.6102195 
H     4.0819579   -2.4282061    1.4094682 
H     5.3251341    3.1263744   -0.0994699 
H     4.5951021    2.5100827    1.4246317 
H     6.8201045    1.4650122    1.1115317 
H     6.3656893    0.9071943   -0.5298075 
H     6.5388414   -1.8151332    0.8030812 
H     5.8056537   -1.6321647    2.4303840 
H     7.1848419   -0.6055919    1.9643692 
H     4.1511504    0.4978709   -4.6702949 
H     2.3954665    0.4116535   -5.0566909 
H     3.3615829    2.4716710   -6.0552229 
H     4.0157044    2.9741463   -4.4636479 
H     2.0419838    4.2812867   -6.3211422 
H     1.7441784    5.1495681   -4.7770912 
H     0.4220522    4.2378338   -5.5836026 
H    -1.2324013    3.5866657   -1.3406606 
H    -0.2604483    4.1939864   -3.5066354 
H    -2.3031341    1.6542754    2.8316485 
H    -1.4484905    3.0553706    6.0407203 
H    -2.2846692    4.6179534    6.2864221 
H    -2.9697035    3.1322731    6.9783404 
H    -5.1668610    3.7860184    5.7693107 
H    -4.4223074    5.1588617    4.8915036 
H    -5.2207704    3.8384910    3.9864289 
H    -2.7107308    1.1407112    4.8455992 
H    -4.2004941    1.4949001    3.9153596 
H    -4.2232163    1.5463047    5.6937965 
H    -1.1207353    7.5740783    4.6175857 
H    -0.5017394    5.9364213    5.0577454 
H    -1.8066923    6.7104753    6.0294276 
H    -0.4184245    4.5866524    0.3341368 
H    -1.1037158    7.9356687   -0.3284920 
H    -0.2515704    6.3824843   -0.4063329 
H    -2.0393604    6.4131649   -0.4282464 
H    -2.4062209    7.9657367    3.0564662 
H    -3.3025248    7.4169393    1.6260444 
H    -2.1700146    8.7939159    1.4955751 
H     1.0017436    6.7317433    1.6755020 
H     0.3601852    8.3999238    1.6887965 
H     0.2653353    7.3904006    3.1554118 
H     1.5146861    3.1333799    1.8103321 
H     5.0432110    4.0740379    4.5833157 
H     4.8263227    2.3806448    5.0851552 
H     5.0988652    2.7773254    3.3620103 
H     1.3261247    3.7031429    5.3569220 
H     2.8538260    4.4350134    5.9420550 
H     2.5672998    2.6802331    6.1484291 
H     1.7806757    4.7766838    3.1085852 
H     3.2873215    4.4284259    2.2103183 
H     3.3382848    5.4016215    3.7024718 
H     4.1399618   -1.1957982    4.3913965 
H     5.1186369   -0.2134463    5.5427160 
H     4.9012279    0.3304373    3.8308679 
H    -0.1280551   -0.7853190    2.3795259 
H     0.8794294   -2.8424553    2.9301999 
H     2.5372354   -2.7620191    3.5809023 
H     1.2779783   -3.6744868    4.4610698 
H    -0.6956331   -0.6225188    5.5820643 
H    -0.6883645   -2.4118817    5.5508055 
H    -1.0338335   -1.4945935    4.0648017 
H     1.3684054   -2.4250948    6.6104542 
H     2.8867200   -1.7642926    5.9750962 
H     1.6549747   -0.6604767    6.6408898 
