227
Energy =
C    -3.9948094    0.9472001    0.0080134 
C    -4.0256260   -0.0403212   -1.0262217 
C    -3.7454210   -1.3980695   -0.7536186 
H    -4.1202401    0.2869957   -2.0694920 
Pd   -2.0023438   -0.0350465   -0.1708332 
P    -0.2174198   -1.3895287   -0.8716257 
P    -0.5876890    1.5983947    0.6692032 
H    -4.2765828    0.6308990    1.0230593 
H    -3.8690625   -1.7280888    0.2889103 
C    -4.3915223    5.1672904   -0.7759445 
C    -3.8756890    4.3153793   -1.7658049 
C    -3.7438327    2.9451373   -1.5174571 
C    -4.1311342    2.3898922   -0.2753988 
C    -4.6467215    3.2599158    0.7101268 
C    -4.7759491    4.6310935    0.4617729 
H    -4.4942335    6.2401910   -0.9686353 
H    -3.5651746    4.7214144   -2.7347582 
H    -3.3041360    2.3034471   -2.2869916 
H    -4.9490935    2.8532633    1.6795607 
H    -5.1820731    5.2846281    1.2388474 
C    -3.5421128   -4.6955579   -3.5093494 
C    -3.6300178   -4.9125377   -2.1262756 
C    -3.6985630   -3.8242105   -1.2520262 
C    -3.6838100   -2.4951122   -1.7328900 
C    -3.6062909   -2.2938134   -3.1299402 
C    -3.5325654   -3.3815175   -4.0049561 
H    -3.4833079   -5.5437865   -4.1992325 
H    -3.6422346   -5.9304268   -1.7230351 
H    -3.7608798   -3.9996077   -0.1749243 
H    -3.5961093   -1.2808517   -3.5399746 
H    -3.4674250   -3.2034392   -5.0834526 
C     2.1300290   -4.4203213   -5.3385507 
C     2.4704719   -2.9128073   -5.2059396 
C     3.0094780   -2.3726573   -6.5546475 
C     3.6391446   -2.7973111   -4.1849275 
C     1.2345579   -2.1336134   -4.6750645 
C     1.0561007   -2.0652233   -3.2813012 
C     0.2699453   -1.4510828   -5.4733936 
O     0.2908493   -1.5451250   -6.8521353 
C    -0.2675145   -2.7364853   -7.4226757 
C    -0.7007379   -0.5715016   -4.9034068 
C    -1.5392496    0.4052667   -5.7665248 
C    -0.5860433    1.2699216   -6.6338365 
C    -2.3511222    1.3731850   -4.8740935 
C    -2.5489971   -0.3388527   -6.6755798 
C    -0.8346569   -0.5773069   -3.5052870 
C    -0.0097187   -1.3688201   -2.6952598 
C    -0.4884175   -3.1242348   -0.3311463 
C    -1.2085608   -3.3314175    0.8614967 
C    -1.3883879   -4.6124696    1.4061065 
C    -2.3409936   -4.8421380    2.6079536 
C    -1.5911364   -5.3078140    3.8811478 
C    -3.1036501   -3.5454067    2.9655605 
C    -3.4000457   -5.9099038    2.2196184 
C    -0.7341850   -5.6956090    0.7435502 
O    -0.7081081   -6.9167512    1.3890856 
C     0.5397052   -7.1996520    2.0381290 
C    -0.1570511   -5.5515444   -0.5460451 
C    -0.0309831   -4.2377187   -1.0419505 
C     0.3396246   -6.6968037   -1.4711744 
C     1.8835957   -6.6119579   -1.5944910 
C    -0.0585149   -8.1285953   -1.0384178 
C    -0.2932925   -6.4953041   -2.8775024 
C     1.4847897   -0.9955387   -0.3189138 
C     2.2455244   -1.9384018    0.3905541 
C     3.5465961   -1.6466644    0.8105858 
C     2.0424904    0.2822978   -0.5990353 
C     3.3387160    0.5753907   -0.1398455 
C     4.1252883   -0.3841662    0.5672027 
O     3.8131863    1.8264035   -0.4239754 
C     4.9964099    2.2295369    0.2694139 
C     6.0182672    1.1020615    0.3047624 
N     5.4191694   -0.0501111    0.9720361 
C     6.3222945   -1.0990436    1.4236494 
C     1.3425826    1.3598134   -1.3758053 
C     1.8302592    1.6666171   -2.6599311 
C     1.2919010    2.7406098   -3.4357201 
O     2.8716526    0.9100068   -3.1250446 
C     3.1146986    0.9956399   -4.5339175 
C     3.1344743    2.4474751   -4.9890042 
N     1.8439449    3.0458823   -4.6746767 
C     1.4540309    4.2632604   -5.3700812 
C     0.2620871    2.1248432   -0.8516446 
C    -0.3164521    3.1368534   -1.6403104 
C     0.2032369    3.4579790   -2.8953324 
C    -1.3193279    3.0532978    1.5158319 
C    -2.0898845    2.7350248    2.6408956 
C    -2.5066758    3.7047884    3.5693340 
C    -3.1110649    3.1804769    4.9029557 
C    -3.1748410    4.2197773    6.0491685 
C    -4.5235662    2.5942703    4.6557654 
C    -2.1859531    2.0386760    5.4209306 
C    -2.2494326    5.0630407    3.2264177 
O    -2.7713221    6.0847462    3.9954711 
C    -4.1729154    6.3308240    3.8411548 
C    -1.3960003    5.4196269    2.1395985 
C    -0.9339135    4.3855405    1.3077915 
C    -0.9152155    6.8731479    1.9059394 
C     0.0982099    6.9483567    0.7395222 
C    -2.0981497    7.8078820    1.5461536 
C    -0.2013036    7.3953572    3.1812750 
C     0.6735728    1.1804562    1.9420941 
C     1.5712249    2.1940580    2.3246006 
C     2.4357563    2.0315266    3.4127448 
C     3.2036772    3.2492020    3.9895227 
C     2.5792790    3.5503036    5.3807149 
C     3.0076306    4.5004967    3.1016474 
C     4.7284718    3.0314424    4.1644620 
C     2.4155859    0.7646387    4.0748597 
O     3.3793617    0.5390466    5.0417221 
C     4.4937680   -0.2160745    4.5512486 
C     1.4385861   -0.2252342    3.8009226 
C     0.5919300    0.0074695    2.6930242 
C     1.1647558   -1.4980281    4.6491515 
C     1.9119302   -1.5868179    6.0023180 
C     1.4970859   -2.7589927    3.8130841 
C    -0.3472083   -1.5036701    5.0108433 
H     3.0114449   -4.9792076   -5.7011808 
H     1.8389235   -4.8397456   -4.3610362 
H     1.2996560   -4.6014495   -6.0393153 
H     3.9741581   -2.8624345   -6.7753825 
H     2.3353635   -2.5643047   -7.3995220 
H     3.1825168   -1.2844340   -6.5085946 
H     3.8383835   -1.7489873   -3.9066588 
H     4.5538412   -3.2229349   -4.6316706 
H     3.4455161   -3.3593668   -3.2555663 
H     1.7857112   -2.5452321   -2.6263795 
H    -1.1395152   -3.0849026   -6.8402334 
H     0.4817208   -3.5470611   -7.4755517 
H    -0.5833502   -2.4785903   -8.4457214 
H    -1.1707347    2.0119871   -7.2072082 
H    -0.0206512    0.6469799   -7.3428185 
H     0.1301581    1.8096801   -5.9911344 
H    -3.1217528    0.8451833   -4.2842119 
H    -1.7020203    1.9344506   -4.1803192 
H    -2.8781471    2.1015444   -5.5139996 
H    -3.1973525   -1.0085295   -6.0841287 
H    -3.1984538    0.3940369   -7.1868576 
H    -2.0447207   -0.9307301   -7.4514161 
H    -1.5772198    0.0579469   -3.0151937 
H    -1.6516636   -2.4612595    1.3554127 
H    -0.7619301   -4.6237890    4.1246070 
H    -2.2880926   -5.3175565    4.7380858 
H    -1.1937130   -6.3260432    3.7661865 
H    -2.4290678   -2.7452262    3.3125964 
H    -3.8140849   -3.7560823    3.7826976 
H    -3.6881884   -3.1623981    2.1100415 
H    -2.9251894   -6.8730371    1.9802596 
H    -4.0988228   -6.0630381    3.0612834 
H    -3.9912146   -5.5819313    1.3463442 
H     0.7840263   -6.4201718    2.7836773 
H     0.4147778   -8.1700255    2.5415585 
H     1.3686589   -7.2664248    1.3094175 
H     0.4379652   -4.0883338   -2.0159302 
H     2.3711684   -6.7527723   -0.6138242 
H     2.2049603   -5.6326020   -1.9908528 
H     2.2571195   -7.3956428   -2.2775885 
H     0.1763605   -8.8178332   -1.8690018 
H     0.4930799   -8.4845948   -0.1567928 
H    -1.1362475   -8.2028657   -0.8230234 
H    -0.0969108   -5.4992520   -3.3048089 
H    -1.3862772   -6.6261143   -2.8289200 
H     0.1150710   -7.2467283   -3.5759204 
H     1.8275841   -2.9250121    0.6066049 
H     4.1184953   -2.4178507    1.3312100 
H     5.3822854    3.1056495   -0.2743707 
H     4.7292322    2.5293311    1.2982894 
H     6.9042439    1.4262560    0.8773103 
H     6.3473156    0.8576633   -0.7287128 
H     6.5522606   -1.8379777    0.6268305 
H     5.8906987   -1.6391559    2.2828327 
H     7.2636254   -0.6341170    1.7558235 
H     4.0875521    0.5104808   -4.7028348 
H     2.3287555    0.4348166   -5.0730558 
H     3.2930555    2.4888895   -6.0803317 
H     3.9738406    2.9862279   -4.4983573 
H     1.9686061    4.2916300   -6.3425503 
H     1.7166859    5.1797981   -4.8017602 
H     0.3670570    4.2699112   -5.5640369 
H    -1.1841853    3.6890457   -1.2734137 
H    -0.2431587    4.2808596   -3.4577832 
H    -2.3168716    1.6797683    2.8309789 
H    -2.2139827    4.7440189    6.1738814 
H    -3.9622657    4.9733017    5.9098239 
H    -3.4016886    3.6852838    6.9885499 
H    -4.9368981    2.1791835    5.5922147 
H    -5.2242828    3.3649233    4.2892362 
H    -4.4933825    1.7800745    3.9094040 
H    -1.1511813    2.4003715    5.5528538 
H    -2.1548904    1.1731247    4.7397473 
H    -2.5556360    1.6771522    6.3964684 
H    -4.4599669    7.0231681    4.6468444 
H    -4.7636315    5.4009130    3.9243618 
H    -4.3828048    6.8012908    2.8629117 
H    -0.2513079    4.6195768    0.4909396 
H     0.4399696    7.9916527    0.6280008 
H     0.9908190    6.3249528    0.9243043 
H    -0.3498283    6.6397562   -0.2219143 
H    -2.7615461    7.9694617    2.4071087 
H    -2.6892323    7.3908987    0.7119379 
H    -1.7118066    8.7947194    1.2344897 
H     0.6728020    6.7654206    3.4225046 
H     0.1571683    8.4270800    3.0138908 
H    -0.8815687    7.3973272    4.0460949 
H     1.5607991    3.1348277    1.7713686 
H     3.0626803    4.4363720    5.8306759 
H     1.4986027    3.7571369    5.2837631 
H     2.7164756    2.6951817    6.0625703 
H     3.4169459    4.3592077    2.0850341 
H     3.5324853    5.3566701    3.5587155 
H     1.9434972    4.7760863    3.0075829 
H     5.1966393    2.6592384    3.2366896 
H     4.9466594    2.3233663    4.9753924 
H     5.2080368    3.9933175    4.4186861 
H     4.9482814    0.2758169    3.6719680 
H     4.1866454   -1.2393997    4.2609567 
H     5.2231886   -0.2723478    5.3737662 
H    -0.1545309   -0.7431212    2.4119729 
H     2.9878701   -1.7829144    5.8888961 
H     1.7898186   -0.6703721    6.5999393 
H     1.4857432   -2.4321759    6.5722347 
H     0.8726223   -2.8253852    2.9058679 
H     1.3253784   -3.6695995    4.4145397 
H     2.5536282   -2.7532449    3.4951372 
H    -0.5965535   -2.4209301    5.5726728 
H    -0.5963336   -0.6336798    5.6416005 
H    -0.9950408   -1.4726657    4.1201541 
