107
Energy =
C    -2.2830350    1.9143609    2.6374574 
C    -1.0336443    1.9537747    3.2999084 
C    -0.0204557    2.8710886    2.8905893 
H    -0.7908539    1.1894823    4.0502748 
Pd   -0.5462349    1.4780741    1.2160707 
P     1.3853593    1.3137349   -0.0895643 
P    -1.6046450   -0.1774821   -0.0934343 
H    -2.5781362    2.8188172    2.0827946 
H    -0.3588346    3.8238100    2.4551093 
C    -5.6039316   -0.6563978    3.5611131 
C    -5.8032675    0.5772066    2.9246407 
C    -4.7093200    1.3950168    2.6208172 
C    -3.3943066    1.0034507    2.9583931 
C    -3.2099128   -0.2392627    3.6070721 
C    -4.3018474   -1.0613237    3.8994678 
H    -6.4577910   -1.3011553    3.7935827 
H    -6.8135047    0.9015803    2.6558700 
H    -4.8706308    2.3528994    2.1157460 
H    -2.2049271   -0.5732178    3.8779970 
H    -4.1369872   -2.0238316    4.3946146 
C     3.9083538    2.9598533    4.6450935 
C     3.2931785    1.7275507    4.3668072 
C     2.0127406    1.6924271    3.8068158 
C     1.3237054    2.8884188    3.5025164 
C     1.9526062    4.1186406    3.7887932 
C     3.2301034    4.1536797    4.3616541 
H     4.9132977    2.9868636    5.0783487 
H     3.8202820    0.7916918    4.5809659 
H     1.5477625    0.7288384    3.5668903 
H     1.4322298    5.0553624    3.5587303 
H     3.7019514    5.1174749    4.5790284 
O     1.8932358   -1.8397127   -3.5555506 
O     0.9613099   -3.6614899   -1.6974392 
C     0.2545424   -1.0275866   -2.0557079 
C     1.1719620   -1.4155406   -0.9437224 
C    -1.0264302   -0.4591978   -1.8289456 
C     1.7429735   -0.4903585   -0.0340447 
C     0.6598502   -1.2768126   -3.3903633 
C     1.4800040   -2.7921978   -0.7798333 
C     1.1239518   -3.9377988   -4.6348759 
C     1.4482402   -5.0610756   -3.6274500 
C     2.0829400   -2.7391755   -4.6736319 
C     1.9024798   -4.6133218   -2.2419722 
C    -1.8550038   -0.1179645   -2.9140333 
C     2.5130992   -0.9486416    1.0587190 
C    -0.1673886   -0.9133698   -4.4687972 
C     2.2733746   -3.2354147    0.2904009 
C    -1.4144810   -0.3335394   -4.2249007 
C     2.7712005   -2.3129265    1.2173175 
C    -1.4080179   -1.8406544    0.6594762 
C    -3.4020042    0.1472982   -0.2776526 
C     2.9565051    2.1611593    0.3531942 
C     1.2204890    1.8551794   -1.8389978 
C    -1.8046488   -2.9972492   -0.0442583 
C    -3.7827890    1.4503548   -0.6668415 
C     2.8635579    3.5161103    0.7241737 
C     0.1498294    2.6892298   -2.2068931 
C    -0.7878880   -1.9689822    1.9165381 
C    -4.3923709   -0.8274437   -0.0613802 
C     4.2277987    1.5729340    0.1869956 
C     2.2186716    1.5376564   -2.7823434 
C    -1.6077031   -4.2620196    0.5234604 
C    -5.1315616    1.7588574   -0.8821532 
C     4.0228249    4.2698753    0.9447473 
C     0.0734839    3.2024476   -3.5098010 
C    -0.5905139   -3.2361708    2.4792153 
C    -5.7433936   -0.5082803   -0.2634908 
C     5.3841064    2.3300802    0.4170214 
C     2.1343680    2.0466976   -4.0826633 
C    -1.0066982   -4.3828312    1.7861795 
C    -6.1146289    0.7757733   -0.6854964 
C     5.2846925    3.6763946    0.7991475 
C     1.0653982    2.8822466   -4.4470076 
H     0.1079276   -3.5526750   -4.4378599 
H     1.0904304   -4.3778380   -5.6480612 
H     2.2577759   -5.7035418   -4.0232549 
H     0.5585914   -5.7090617   -3.5310131 
H     3.1385207   -3.0470089   -4.5946609 
H     1.9733409   -2.1843580   -5.6244678 
H     2.8941402   -4.1257031   -2.2914948 
H     1.9845669   -5.4917898   -1.5732221 
H    -2.8472765    0.3047427   -2.7417827 
H     2.9222439   -0.2309314    1.7757828 
H     0.1635411   -1.0822670   -5.4965231 
H     2.4748277   -4.3033051    0.4084649 
H    -2.0564599   -0.0547612   -5.0666701 
H     3.3690344   -2.6608441    2.0659615 
H    -2.2354150   -2.9091557   -1.0471112 
H    -3.0156287    2.2218993   -0.8068861 
H     1.8780590    3.9806030    0.8354925 
H    -0.6239734    2.9325627   -1.4686289 
H    -0.4283194   -1.0703319    2.4306549 
H    -4.1168876   -1.8290079    0.2801829 
H     4.3195688    0.5286894   -0.1270031 
H     3.0488317    0.8792765   -2.5059286 
H    -1.9100978   -5.1568020   -0.0299359 
H    -5.4165198    2.7684400   -1.1961571 
H     3.9388903    5.3203072    1.2406104 
H    -0.7620025    3.8514681   -3.7918664 
H    -0.0968302   -3.3290451    3.4520120 
H    -6.5088677   -1.2697816   -0.0828432 
H     6.3677081    1.8658429    0.2901051 
H     2.9064610    1.7905774   -4.8156025 
H    -0.8486322   -5.3740641    2.2239830 
H    -7.1703843    1.0164929   -0.8474305 
H     6.1910436    4.2638159    0.9787898 
H     1.0071192    3.2835904   -5.4641392 
