107
Energy =
C    -2.3075773    1.8652484    2.5123692 
C    -1.0942070    2.4381549    2.9947543 
C    -0.3253385    3.3198252    2.2018813 
H    -0.6586291    2.0606668    3.9289213 
Pd   -0.6312561    1.3217549    1.1376243 
P     1.3931172    0.9226943    0.0365715 
P    -1.7722629   -0.2806710   -0.1326926 
H    -2.9071436    2.4642207    1.8132742 
H    -0.8214704    3.7938932    1.3393893 
C    -4.5226059   -1.2274789    4.5318658 
C    -3.1544965   -1.0587805    4.8058402 
C    -2.4254507   -0.0562761    4.1602831 
C    -3.0473583    0.8055682    3.2254311 
C    -4.4237559    0.6262654    2.9642476 
C    -5.1529083   -0.3796326    3.6102506 
H    -5.0912472   -2.0154347    5.0362360 
H    -2.6542152   -1.7177460    5.5233198 
H    -1.3551224    0.0467742    4.3717906 
H    -4.9225967    1.2829671    2.2435639 
H    -6.2183892   -0.5009917    3.3891382 
C     3.3576119    5.1900402    3.3847316 
C     2.9987031    5.1150670    2.0292918 
C     1.7949455    4.5116403    1.6556984 
C     0.9328107    3.9533503    2.6275913 
C     1.3043963    4.0401044    3.9889001 
C     2.5030201    4.6578475    4.3622548 
H     4.2976290    5.6683991    3.6780693 
H     3.6628010    5.5247954    1.2618501 
H     1.5245102    4.4438083    0.5959716 
H     0.6370081    3.6507194    4.7646539 
H     2.7686951    4.7307214    5.4219841 
O     1.6091095   -1.6624176   -3.8376734 
O     0.4617070   -3.6515166   -2.2962539 
C     0.0402096   -0.9553047   -2.2007405 
C     0.9101803   -1.6114698   -1.1774195 
C    -1.1985243   -0.3355236   -1.8893779 
C     1.5876503   -0.9069623   -0.1484354 
C     0.4361980   -1.0174685   -3.5588561 
C     1.0839314   -3.0189291   -1.2581334 
C     2.5784830   -3.6952184   -4.7667988 
C     2.5166879   -4.4581359   -3.4259666 
C     1.5594284   -2.5761818   -4.9564800 
C     1.1216847   -4.7988504   -2.8816162 
C    -1.9819497    0.2380474   -2.9098835 
C     2.3602543   -1.6036132    0.8019849 
C    -0.3437158   -0.4300303   -4.5694945 
C     1.8339486   -3.7066999   -0.2878261 
C    -1.5457354    0.2010091   -4.2391728 
C     2.4613403   -2.9971917    0.7393004 
C    -1.6742079   -2.0189148    0.4294175 
C    -3.5613241    0.1317068   -0.2458725 
C     2.8744871    1.4446718    0.9919527 
C     1.6174850    1.6263670   -1.6382836 
C    -2.0829997   -3.0725651   -0.4152049 
C    -4.5765735   -0.8173954   -0.0268543 
C     2.8140992    1.3612685    2.3994249 
C     2.5748401    1.1001079   -2.5306191 
C    -1.1665181   -2.3013175    1.7109153 
C    -3.9161358    1.4711727   -0.5227856 
C     4.0496331    1.9213457    0.3789689 
C     0.8250500    2.7224593   -2.0302821 
C    -1.9910812   -4.3962296    0.0310344 
C    -5.9249353   -0.4349088   -0.1035698 
C     3.9214920    1.7159769    3.1782648 
C     2.7420108    1.6773294   -3.7950015 
C    -1.0764502   -3.6282454    2.1506836 
C    -5.2624394    1.8466342   -0.6067131 
C     5.1526944    2.2844899    1.1639111 
C     0.9962447    3.2960575   -3.2978590 
C    -1.4897567   -4.6747504    1.3127688 
C    -6.2711610    0.8910778   -0.3968906 
C     5.0935192    2.1779925    2.5607716 
C     1.9566619    2.7759481   -4.1784270 
H     2.4219587   -4.3966095   -5.6085437 
H     3.5985888   -3.2891374   -4.8895882 
H     3.0495130   -3.8801429   -2.6504076 
H     3.0780074   -5.4034991   -3.5376198 
H     1.7705269   -2.0329036   -5.8976380 
H     0.5343602   -2.9866232   -5.0201569 
H     1.1823353   -5.6168077   -2.1393662 
H     0.4321788   -5.1288621   -3.6759740 
H    -2.9457125    0.6953334   -2.6756344 
H     2.8944269   -1.0584313    1.5839086 
H    -0.0031842   -0.4642336   -5.6078118 
H     1.9299938   -4.7940271   -0.3390367 
H    -2.1567472    0.6568604   -5.0249158 
H     3.0492586   -3.5348774    1.4901418 
H    -2.4409782   -2.8584163   -1.4275530 
H    -4.3201831   -1.8514067    0.2202050 
H     1.8883113    1.0255276    2.8825345 
H     3.1591709    0.2171820   -2.2516456 
H    -0.8319194   -1.4792874    2.3513088 
H    -3.1305475    2.2223598   -0.6735858 
H     4.1053210    2.0193099   -0.7088919 
H     0.0624273    3.1106702   -1.3446643 
H    -2.3005551   -5.2130940   -0.6289287 
H    -6.7067729   -1.1802040    0.0753877 
H     3.8619220    1.6519933    4.2690445 
H     3.4772029    1.2563164   -4.4883498 
H    -0.6761133   -3.8449240    3.1463152 
H    -5.5256546    2.8857754   -0.8297269 
H     6.0615232    2.6557199    0.6790028 
H     0.3737283    4.1440437   -3.6012308 
H    -1.4155829   -5.7118799    1.6566090 
H    -7.3243340    1.1843626   -0.4556248 
H     5.9559397    2.4664688    3.1703997 
H     2.0868502    3.2221071   -5.1699267 
