107
Energy =
C    -2.8289646   -1.9862199   -2.0227593 
C    -1.6242677   -2.5110263   -2.5424539 
C    -0.8321088   -3.4378255   -1.7968219 
H    -1.2175390   -2.0908957   -3.4713798 
Pd   -1.0499086   -1.5348658   -0.6584082 
P     0.8270320   -1.5801973    0.7220182 
P    -1.5416554    0.7131552   -0.1376222 
H    -3.3279476   -2.5664862   -1.2305784 
H    -1.3588682   -4.1333331   -1.1269179 
C    -5.4224455    0.8507950   -3.9480401 
C    -5.9093860   -0.0101143   -2.9539072 
C    -5.0474622   -0.9165118   -2.3267729 
C    -3.6840401   -0.9916196   -2.6903965 
C    -3.2064528   -0.1141116   -3.6915039 
C    -4.0660427    0.7979714   -4.3101411 
H    -6.0944031    1.5638471   -4.4367636 
H    -6.9629766    0.0283097   -2.6600061 
H    -5.4318951   -1.5821203   -1.5468304 
H    -2.1529704   -0.1337783   -3.9835688 
H    -3.6761232    1.4723510   -5.0795734 
C     3.0954733   -4.6963171   -3.0421050 
C     2.6230429   -3.4215701   -3.3968112 
C     1.3473654   -3.0083609   -3.0001400 
C     0.5091593   -3.8631698   -2.2454713 
C     0.9962052   -5.1431578   -1.9042229 
C     2.2760682   -5.5546228   -2.2955301 
H     4.0974323   -5.0162747   -3.3456758 
H     3.2574356   -2.7432946   -3.9776232 
H     1.0088155   -1.9972606   -3.2526822 
H     0.3618412   -5.8205765   -1.3236245 
H     2.6359187   -6.5484724   -2.0112721 
O     1.8844487    3.4663034    0.4112069 
O     2.4121620    2.0096624    2.8966201 
C     1.5235496    1.1477271    0.5291720 
C     0.5339259    1.5057271    1.5918624 
C     1.8024624   -0.1642209    0.0798860 
C    -0.8691866    1.4446299    1.4187906 
C     2.2333562    2.2332506   -0.0538638 
C     1.0528277    2.0448902    2.7953189 
C     3.8185047    4.3799643    1.6234249 
C     3.1405219    4.3609966    3.0191489 
C     2.8459459    4.5337559    0.4506824 
C     3.1085349    2.9849615    3.6908092 
C     2.7000591   -0.3715968   -0.9914684 
C    -1.7278243    1.9154202    2.4316823 
C     3.1660414    2.0151869   -1.0799562 
C     0.1935193    2.5162993    3.8012125 
C     3.3774254    0.7146009   -1.5544872 
C    -1.1910622    2.4496757    3.6090623 
C     0.5788357   -1.3115664    2.5247644 
C     1.8895122   -3.0803077    0.7956788 
C    -3.3421333    1.0538141   -0.0516352 
C    -0.8156102    1.8082772   -1.4228236 
C    -0.7091372   -1.3710331    3.0851802 
C     1.2144761   -4.2705079    1.1403507 
C    -3.9709821    2.1005069   -0.7493137 
C    -0.8121546    3.2081742   -1.2519601 
C     1.7012511   -1.1281755    3.3576356 
C     3.2933036   -3.0894667    0.6916933 
C    -4.1140522    0.2065084    0.7733619 
C    -0.1884697    1.2440679   -2.5504781 
C    -0.8783163   -1.2294609    4.4693879 
C     1.9295419   -5.4491606    1.3783766 
C    -5.3487059    2.3147490   -0.5950315 
C    -0.2149606    4.0281281   -2.2180304 
C     1.5263585   -0.9833169    4.7380633 
C     4.0034657   -4.2803156    0.9076117 
C    -5.4856240    0.4356447    0.9370069 
C     0.4141965    2.0666819   -3.5096762 
C     0.2381418   -1.0334516    5.2951794 
C     3.3271615   -5.4584162    1.2531182 
C    -6.1041342    1.4961078    0.2559196 
C     0.3951646    3.4604514   -3.3473448 
H     4.4150367    3.4604251    1.4724380 
H     4.5297908    5.2236071    1.5618660 
H     2.1065202    4.7482056    2.9483770 
H     3.6770564    5.0387165    3.7077781 
H     2.2326304    5.4427308    0.5655629 
H     3.3887023    4.6165266   -0.5089196 
H     2.6769339    3.0478700    4.7071126 
H     4.1263081    2.5725763    3.7865095 
H     2.8635072   -1.3776514   -1.3855109 
H    -2.8117804    1.8785422    2.2988285 
H     3.7004369    2.8552831   -1.5303075 
H     0.5974483    2.9260509    4.7303321 
H     4.0804445    0.5480670   -2.3773658 
H    -1.8621965    2.8187928    4.3913928 
H    -1.5774098   -1.5140538    2.4313158 
H     0.1215139   -4.2659890    1.2331199 
H    -3.3940973    2.7398028   -1.4233619 
H    -1.2486192    3.6518967   -0.3512782 
H     2.7056490   -1.0818821    2.9244826 
H     3.8408173   -2.1715901    0.4608012 
H    -3.6339534   -0.6321883    1.2921256 
H    -0.1466570    0.1532811   -2.6477859 
H    -1.8832489   -1.2678973    4.9020978 
H     1.3943393   -6.3641577    1.6527190 
H    -5.8326320    3.1250489   -1.1497267 
H    -0.2132344    5.1143854   -2.0801808 
H     2.3986210   -0.8309906    5.3822086 
H     5.0947406   -4.2797092    0.8172855 
H    -6.0736546   -0.2184312    1.5892608 
H     0.9110334    1.6192852   -4.3766897 
H     0.1051645   -0.9223723    6.3764341 
H     3.8883657   -6.3818521    1.4294811 
H    -7.1778196    1.6731930    0.3771213 
H     0.8675692    4.1050647   -4.0960772 
