107
Energy =
C    -2.8436978   -1.9161476   -2.0142494 
C    -1.6920367   -2.5800692   -2.4984531 
C    -1.0259857   -3.5575769   -1.7010476 
H    -1.2306405   -2.2541335   -3.4401952 
Pd   -1.0247870   -1.5640010   -0.6738787 
P     0.8900783   -1.5526723    0.6676280 
P    -1.4574309    0.6917638   -0.1280889 
H    -3.4048257   -2.4201032   -1.2118386 
H    -1.6473837   -4.1300790   -0.9954148 
C    -5.1681870    1.0451075   -4.0923182 
C    -5.7449003    0.2471457   -3.0937069 
C    -4.9696436   -0.7024346   -2.4191108 
C    -3.6050865   -0.8842813   -2.7376682 
C    -3.0397723   -0.0780405   -3.7522135 
C    -3.8113707    0.8791612   -4.4169849 
H    -5.7711999    1.7935721   -4.6167244 
H    -6.8007652    0.3691033   -2.8323362 
H    -5.4234807   -1.3160748   -1.6341441 
H    -1.9858053   -0.1906682   -4.0193724 
H    -3.3522376    1.4999179   -5.1933250 
C     2.6030032   -5.5131396   -2.9363918 
C     2.4403680   -4.1349227   -3.1565477 
C     1.2596567   -3.4959564   -2.7666157 
C     0.2203908   -4.2186334   -2.1379609 
C     0.3967002   -5.6021917   -1.9238405 
C     1.5741362   -6.2447442   -2.3265366 
H     3.5298372   -6.0119983   -3.2371519 
H     3.2428851   -3.5570808   -3.6272803 
H     1.1476261   -2.4155131   -2.9165235 
H    -0.3991875   -6.1770244   -1.4367763 
H     1.6925607   -7.3196666   -2.1550823 
O     2.1335510    3.5367619    0.4210085 
O     2.4675633    2.2986594    2.8706199 
C     1.5884595    1.2232474    0.5054588 
C     0.6204630    1.5606114    1.5909439 
C     1.8080544   -0.0925616    0.0260095 
C    -0.7805559    1.3789873    1.4512874 
C     2.3211566    2.2837938   -0.0905254 
C     1.1149582    2.1272412    2.7917886 
C     3.0916637    5.3035160    1.7924436 
C     2.4438330    4.7707136    3.0880121 
C     3.3447676    4.2762651    0.6938684 
C     2.9640478    3.4295665    3.6254998 
C     2.6576870   -0.3145541   -1.0812276 
C    -1.6503590    1.7223228    2.5029527 
C     3.1893252    2.0491323   -1.1687551 
C     0.2391568    2.4466870    3.8455993 
C     3.3389926    0.7525447   -1.6730998 
C    -1.1340106    2.2391343    3.6967412 
C     0.6094617   -1.3530045    2.4739025 
C     2.0925950   -2.9442094    0.6884277 
C    -3.2585397    1.0294011   -0.0178543 
C    -0.7494862    1.8276468   -1.3851042 
C    -0.6644188   -1.6111511    3.0104392 
C     1.5587205   -4.2422332    0.7988132 
C    -3.8845527    2.1155527   -0.6549839 
C    -0.7360848    3.2210219   -1.1643210 
C     1.6857308   -1.0552146    3.3342968 
C     3.4896966   -2.7608724    0.7554789 
C    -4.0322576    0.1403857    0.7602955 
C    -0.1485776    1.3006475   -2.5436814 
C    -0.8650600   -1.5693841    4.3978161 
C     2.4074141   -5.3450119    0.9543758 
C    -5.2616473    2.3249470   -0.4881267 
C    -0.1533512    4.0725360   -2.1109854 
C     1.4790284   -1.0084949    4.7170745 
C     4.3342593   -3.8690640    0.9035553 
C    -5.4033941    0.3634155    0.9363825 
C     0.4352438    2.1559781   -3.4865431 
C     0.2059208   -1.2691306    5.2508398 
C     3.7966722   -5.1613951    0.9991475 
C    -6.0194500    1.4616478    0.3151567 
C     0.4270048    3.5427116   -3.2740760 
H     4.0744480    5.7589473    2.0193557 
H     2.4579574    6.1170332    1.3958643 
H     1.3536932    4.6764182    2.9391182 
H     2.5773659    5.5285356    3.8812007 
H     3.6924274    4.7883819   -0.2240285 
H     4.1253842    3.5554100    1.0014861 
H     2.7029778    3.3113377    4.6940323 
H     4.0603418    3.3456254    3.5455538 
H     2.7951662   -1.3287122   -1.4676126 
H    -2.7299734    1.5993879    2.3916248 
H     3.7223806    2.8865373   -1.6265427 
H     0.6304633    2.8562564    4.7801720 
H     3.9957800    0.5732525   -2.5305105 
H    -1.8125098    2.4924379    4.5176571 
H    -1.4981627   -1.8422140    2.3362812 
H     0.4735394   -4.3857179    0.7665070 
H    -3.3070922    2.7889796   -1.2943592 
H    -1.1511283    3.6342423   -0.2391670 
H     2.6778904   -0.8429019    2.9226442 
H     3.9213321   -1.7569642    0.6986426 
H    -3.5532061   -0.7255038    1.2336738 
H    -0.1097406    0.2138742   -2.6798881 
H    -1.8588630   -1.7703390    4.8110190 
H     1.9817491   -6.3504436    1.0306961 
H    -5.7432148    3.1664942   -0.9963840 
H    -0.1383848    5.1523111   -1.9313661 
H     2.3151642   -0.7679884    5.3818409 
H     5.4180753   -3.7196307    0.9506277 
H    -5.9929085   -0.3238251    1.5522188 
H     0.9108857    1.7380432   -4.3797313 
H     0.0503560   -1.2378834    6.3343221 
H     4.4606894   -6.0244577    1.1131174 
H    -7.0927235    1.6341896    0.4461004 
H     0.8873400    4.2114727   -4.0089675 
