107
Energy =
C    -2.2937391    1.8554457    2.4945678 
C    -1.0975177    2.4512962    2.9918364 
C    -0.3264249    3.3334957    2.2018518 
H    -0.6743107    2.0922020    3.9388378 
Pd   -0.5845187    1.3170724    1.1586377 
P     1.4652463    0.9288326    0.0998688 
P    -1.6812215   -0.3156023   -0.1104416 
H    -2.8878487    2.4371482    1.7765242 
H    -0.8127875    3.7885772    1.3237058 
C    -4.5053139   -1.2429661    4.5091404 
C    -3.1466425   -1.0483925    4.8114422 
C    -2.4189357   -0.0435989    4.1679595 
C    -3.0328419    0.7947905    3.2068456 
C    -4.4000939    0.5899313    2.9176064 
C    -5.1278069   -0.4183393    3.5615027 
H    -5.0727508   -2.0328787    5.0117939 
H    -2.6524963   -1.6890199    5.5494821 
H    -1.3554494    0.0794230    4.4020569 
H    -4.8928318    1.2284618    2.1766714 
H    -6.1860323   -0.5596854    3.3184994 
C     3.3038998    5.2772398    3.4276826 
C     2.9716788    5.1788110    2.0669352 
C     1.7850560    4.5508915    1.6791771 
C     0.9139165    3.9913606    2.6423123 
C     1.2587993    4.1013592    4.0089715 
C     2.4401677    4.7433126    4.3961945 
H     4.2301522    5.7751873    3.7320116 
H     3.6433899    5.5892796    1.3065481 
H     1.5355543    4.4647868    0.6155823 
H     0.5835008    3.7110072    4.7773513 
H     2.6850888    4.8336945    5.4595673 
O     1.7930723   -1.7328093   -3.7033476 
O     0.6435380   -3.7146208   -2.1542100 
C     0.1790875   -1.0098468   -2.1275040 
C     1.0346198   -1.6352304   -1.0731207 
C    -1.0645108   -0.3841601   -1.8519358 
C     1.6944021   -0.8999239   -0.0530441 
C     0.6138557   -1.0817609   -3.4760618 
C     1.2388174   -3.0370263   -1.1271573 
C     0.8521603   -3.5551119   -5.1022247 
C     1.0241961   -4.8471425   -4.2751075 
C     1.9297126   -2.4729412   -4.9400281 
C     1.4888164   -4.6693699   -2.8332658 
C    -1.8153039    0.1975952   -2.8916634 
C     2.4841425   -1.5668575    0.9049362 
C    -0.1284584   -0.4713400   -4.5029556 
C     2.0168990   -3.6950934   -0.1599980 
C    -1.3337343    0.1686584   -4.2050048 
C     2.6291123   -2.9575166    0.8569000 
C    -1.5741545   -2.0441860    0.4775251 
C    -3.4717766    0.0744692   -0.2700041 
C     2.9196232    1.4915745    1.0735267 
C     1.7114222    1.6083990   -1.5824346 
C    -1.9473448   -3.1147430   -0.3622070 
C    -4.4799762   -0.8854405   -0.0655041 
C     2.8363204    1.4219991    2.4806729 
C     2.7004041    1.0881202   -2.4434100 
C    -1.0859333   -2.3023850    1.7716569 
C    -3.8368661    1.4070854   -0.5658532 
C     4.0958648    1.9848669    0.4760216 
C     0.9086016    2.6835023   -2.0095845 
C    -1.8380922   -4.4313703    0.1003435 
C    -5.8308491   -0.5204759   -0.1753274 
C     3.9226514    1.8067830    3.2746884 
C     2.8887745    1.6518163   -3.7109786 
C    -0.9791573   -3.6223821    2.2281312 
C    -5.1855009    1.7649933   -0.6828662 
C     5.1776787    2.3780389    1.2759730 
C     1.1003468    3.2426725   -3.2806899 
C    -1.3558927   -4.6858632    1.3942309 
C    -6.1867593    0.7986787   -0.4874139 
C     5.0960911    2.2853878    2.6726522 
C     2.0925858    2.7297234   -4.1294384 
H    -0.1248020   -3.0975375   -4.8665259 
H     0.8073985   -3.8303073   -6.1715699 
H     1.7681868   -5.5094967   -4.7573912 
H     0.0664554   -5.3978354   -4.2881149 
H     2.9449088   -2.8992972   -4.8865457 
H     1.9114868   -1.7753273   -5.7985173 
H     2.5285920   -4.2934093   -2.7999555 
H     1.4590595   -5.6432312   -2.3076099 
H    -2.7844618    0.6567979   -2.6857009 
H     3.0013483   -0.9984935    1.6818656 
H     0.2334639   -0.5020949   -5.5336362 
H     2.1334623   -4.7811315   -0.2043848 
H    -1.9136773    0.6355098   -5.0076261 
H     3.2361109   -3.4679340    1.6116116 
H    -2.2887820   -2.9190481   -1.3839723 
H    -4.2163954   -1.9139998    0.1963491 
H     1.9093432    1.0722004    2.9514505 
H     3.2949519    0.2214315   -2.1364421 
H    -0.7786341   -1.4670333    2.4084871 
H    -3.0575069    2.1671237   -0.7040112 
H     4.1691079    2.0719905   -0.6116988 
H     0.1226267    3.0669597   -1.3480911 
H    -2.1162554   -5.2611816   -0.5571918 
H    -6.6072742   -1.2739787   -0.0074913 
H     3.8453229    1.7528242    4.3649044 
H     3.6512329    1.2380818   -4.3789959 
H    -0.5938278   -3.8204034    3.2335179 
H    -5.4564794    2.7990727   -0.9196906 
H     6.0875090    2.7617622    0.8028167 
H     0.4696021    4.0742298   -3.6113349 
H    -1.2669862   -5.7175552    1.7506401 
H    -7.2419048    1.0783860   -0.5714922 
H     5.9416748    2.5977282    3.2939780 
H     2.2397702    3.1653073   -5.1232710 
