107
Energy =
C    -2.8567343   -1.9212932   -2.0209299 
C    -1.6879015   -2.5694193   -2.4853075 
C    -1.0197598   -3.5330789   -1.6735017 
H    -1.2181018   -2.2418432   -3.4223110 
Pd   -1.0621851   -1.5329718   -0.6573886 
P     0.8416971   -1.4830941    0.7001980 
P    -1.5532980    0.7124624   -0.1135124 
H    -3.4216633   -2.4305548   -1.2246319 
H    -1.6430074   -4.1077755   -0.9712489 
C    -5.1988227    0.9883768   -4.1516892 
C    -5.7778821    0.1842700   -3.1594063 
C    -4.9971041   -0.7480297   -2.4672815 
C    -3.6242940   -0.9064622   -2.7618250 
C    -3.0567793   -0.0951180   -3.7710283 
C    -3.8340353    0.8452617   -4.4529965 
H    -5.8061947    1.7237075   -4.6894692 
H    -6.8401282    0.2879407   -2.9166556 
H    -5.4529446   -1.3660404   -1.6869401 
H    -1.9968090   -0.1907307   -4.0205646 
H    -3.3731523    1.4707415   -5.2244939 
C     2.6432650   -5.4603293   -2.8502532 
C     2.4735778   -4.0835848   -3.0739331 
C     1.2817691   -3.4536864   -2.7035497 
C     0.2387598   -4.1838646   -2.0902442 
C     0.4224010   -5.5658732   -1.8716936 
C     1.6106381   -6.1996343   -2.2560688 
H     3.5785673   -5.9521363   -3.1360096 
H     3.2792411   -3.4997459   -3.5316104 
H     1.1630082   -2.3743123   -2.8562626 
H    -0.3763865   -6.1463689   -1.3962472 
H     1.7346470   -7.2735460   -2.0821955 
O     1.9420947    3.6307056    0.5573886 
O     2.2765325    2.3632228    2.9909139 
C     1.4701803    1.3075021    0.5831213 
C     0.4733338    1.6028423    1.6546418 
C     1.7226473    0.0083097    0.0787181 
C    -0.9224370    1.4095876    1.4799909 
C     2.1794218    2.4017170    0.0133827 
C     0.9294683    2.1718003    2.8662659 
C     4.2139604    4.0118701    1.4668431 
C     4.0471148    4.0337849    3.0018263 
C     3.0476421    4.5613068    0.6328230 
C     2.6742545    3.6396913    3.5382100 
C     2.5739083   -0.1733612   -1.0342107 
C    -1.8197423    1.7575726    2.5072672 
C     3.0419578    2.2065521   -1.0787411 
C     0.0281963    2.5093833    3.8908975 
C     3.2202204    0.9241547   -1.6085640 
C    -1.3404593    2.2965168    3.7073122 
C     0.5475398   -1.3002611    2.5057468 
C     2.0847394   -2.8384183    0.7152448 
C    -3.3634813    1.0083181   -0.0343000 
C    -0.8523984    1.8717030   -1.3536016 
C    -0.7307582   -1.5549352    3.0331943 
C     1.5888903   -4.1513575    0.8288076 
C    -4.0032867    2.0808468   -0.6806829 
C    -0.8741947    3.2636949   -1.1244894 
C     1.6179681   -1.0017108    3.3731621 
C     3.4764941   -2.6155857    0.7720105 
C    -4.1294258    0.1018033    0.7312291 
C    -0.2320136    1.3664644   -2.5115169 
C    -0.9419585   -1.5063040    4.4186755 
C     2.4697006   -5.2294823    0.9771918 
C    -5.3872580    2.2592868   -0.5359139 
C    -0.3076014    4.1347969   -2.0632421 
C     1.4008103   -0.9482644    4.7539926 
C     4.3533988   -3.6994097    0.9135376 
C    -5.5078630    0.2939248    0.8852802 
C     0.3360383    2.2413728   -3.4461029 
C     0.1228712   -1.2033654    5.2786192 
C     3.8535812   -5.0064542    1.0119330 
C    -6.1383424    1.3785788    0.2546393 
C     0.2923091    3.6261930   -3.2260712 
H     4.4076940    2.9771076    1.1326439 
H     5.1200371    4.5888914    1.2073693 
H     4.2468584    5.0511358    3.3890067 
H     4.8174127    3.3777838    3.4454584 
H     2.6060764    5.4682950    1.0773661 
H     3.3873054    4.8273950   -0.3857611 
H     1.9124603    4.3895747    3.2535648 
H     2.7051565    3.5843730    4.6434293 
H     2.7383088   -1.1762489   -1.4386983 
H    -2.8951498    1.6231987    2.3701129 
H     3.5603500    3.0583796   -1.5255767 
H     0.4024853    2.9253128    4.8301796 
H     3.8768467    0.7809320   -2.4728325 
H    -2.0438453    2.5576296    4.5045454 
H    -1.5599063   -1.7859194    2.3534601 
H     0.5081263   -4.3260335    0.8044011 
H    -3.4306348    2.7679561   -1.3097538 
H    -1.3057788    3.6610996   -0.2000051 
H     2.6136964   -0.7929501    2.9685518 
H     3.8790576   -1.5998546    0.7127236 
H    -3.6388221   -0.7532662    1.2124490 
H    -0.1668903    0.2818698   -2.6542734 
H    -1.9393855   -1.7029990    4.8250959 
H     2.0734042   -6.2466418    1.0556149 
H    -5.8792941    3.0903341   -1.0513679 
H    -0.3229014    5.2138733   -1.8788851 
H     2.2320051   -0.7052678    5.4238835 
H     5.4327835   -3.5190893    0.9535133 
H    -6.0915826   -0.4065307    1.4916646 
H     0.8266189    1.8403937   -4.3390002 
H    -0.0414814   -1.1658943    6.3605957 
H     4.5426115   -5.8504023    1.1203865 
H    -7.2170667    1.5273014    0.3689356 
H     0.7390026    4.3104002   -3.9551760 
