107
Energy =
C    -2.8494209   -1.9186379   -2.0230373 
C    -1.6919438   -2.5938408   -2.4771510 
C    -1.0446693   -3.5611574   -1.6535078 
H    -1.2148203   -2.2875645   -3.4176501 
Pd   -1.0484799   -1.5465587   -0.6613350 
P     0.8689652   -1.5193197    0.6815841 
P    -1.5135441    0.7118051   -0.1431896 
H    -3.4248941   -2.4077346   -1.2216914 
H    -1.6799460   -4.1126647   -0.9434133 
C    -5.1364929    1.0011378   -4.1994163 
C    -5.7318240    0.2198797   -3.1985416 
C    -4.9687732   -0.7161128   -2.4917817 
C    -3.5978368   -0.9009919   -2.7795509 
C    -3.0141449   -0.1131631   -3.7980837 
C    -3.7735230    0.8309755   -4.4948476 
H    -5.7298127    1.7396184   -4.7484394 
H    -6.7928604    0.3445026   -2.9603905 
H    -5.4372085   -1.3160658   -1.7048858 
H    -1.9554243   -0.2304730   -4.0436169 
H    -3.3000588    1.4381419   -5.2733142 
C     2.5666990   -5.5906762   -2.8163653 
C     2.4340303   -4.2111318   -3.0474152 
C     1.2593019   -3.5476887   -2.6811141 
C     0.1973019   -4.2465274   -2.0640996 
C     0.3440769   -5.6316500   -1.8371563 
C     1.5147209   -6.2990404   -2.2183182 
H     3.4886894   -6.1087411   -3.0989760 
H     3.2554069   -3.6513712   -3.5071332 
H     1.1694459   -2.4662497   -2.8389117 
H    -0.4698379   -6.1878146   -1.3583224 
H     1.6101578   -7.3748836   -2.0384240 
O     1.9736254    3.5629963    0.5393487 
O     2.3406918    2.2374929    2.9470477 
C     1.5096751    1.2563379    0.5511759 
C     0.5184698    1.5624626    1.6261733 
C     1.7594893   -0.0409933    0.0459433 
C    -0.8790775    1.4036750    1.4491348 
C     2.2206905    2.3499826   -0.0181046 
C     0.9914546    2.1045183    2.8476483 
C     3.1835092    5.1241639    1.9546707 
C     3.8538951    4.1573793    2.9601069 
C     2.9850733    4.5865349    0.5377499 
C     2.9165291    3.2650676    3.7759257 
C     2.6055765   -0.2218910   -1.0721292 
C    -1.7713670    1.7540582    2.4805635 
C     3.0702076    2.1614922   -1.1212206 
C     0.0971849    2.4159423    3.8877919 
C     3.2468756    0.8769777   -1.6495206 
C    -1.2765274    2.2454503    3.6939705 
C     0.6166149   -1.3141964    2.4923588 
C     2.0911407   -2.8936694    0.6849985 
C    -3.3202074    1.0311736   -0.0699475 
C    -0.7971446    1.8564752   -1.3878072 
C    -0.6618647   -1.4911128    3.0499762 
C     1.5768817   -4.1970234    0.8258436 
C    -3.9451023    2.1076277   -0.7243117 
C    -0.8012172    3.2494202   -1.1629037 
C     1.7212928   -1.0686559    3.3335496 
C     3.4873976   -2.6939112    0.7070305 
C    -4.0991767    0.1399826    0.7003656 
C    -0.1866363    1.3400243   -2.5459168 
C    -0.8393150   -1.4140406    4.4387946 
C     2.4429540   -5.2878029    0.9670716 
C    -5.3268261    2.3052201   -0.5827973 
C    -0.2267415    4.1104935   -2.1062232 
C     1.5380585   -0.9877598    4.7179330 
C     4.3494695   -3.7905601    0.8417480 
C    -5.4751797    0.3511479    0.8512097 
C     0.3888932    2.2049676   -3.4852159 
C     0.2592775   -1.1623876    5.2724240 
C     3.8308263   -5.0877081    0.9675134 
C    -6.0905400    1.4397347    0.2124538 
C     0.3631813    3.5908909   -3.2694741 
H     3.8183572    6.0238983    1.8535795 
H     2.2105212    5.4748529    2.3469816 
H     4.4177997    4.7565572    3.6990365 
H     4.5992977    3.5217092    2.4461872 
H     2.6520094    5.3921190   -0.1422194 
H     3.9372209    4.1791410    0.1521064 
H     2.1202747    3.8773768    4.2353220 
H     3.4753435    2.7617514    4.5854251 
H     2.7647315   -1.2236357   -1.4812997 
H    -2.8494517    1.6479594    2.3407116 
H     3.5636875    3.0179928   -1.5875298 
H     0.4728302    2.7762872    4.8489679 
H     3.8915412    0.7356818   -2.5231138 
H    -1.9713273    2.4951918    4.5023550 
H    -1.5178134   -1.6807797    2.3912721 
H     0.4931422   -4.3543230    0.8279079 
H    -3.3626009    2.7830850   -1.3569768 
H    -1.2259291    3.6545434   -0.2386226 
H     2.7183595   -0.9255672    2.9050903 
H     3.9055095   -1.6860428    0.6267442 
H    -3.6206592   -0.7186477    1.1875335 
H    -0.1345519    0.2543644   -2.6851392 
H    -1.8373231   -1.5482157    4.8684868 
H     2.0318416   -6.2971794    1.0665765 
H    -5.8072155    3.1391409   -1.1045714 
H    -0.2295407    5.1905697   -1.9261727 
H     2.3967215   -0.7888859    5.3676711 
H     5.4322930   -3.6276591    0.8548454 
H    -6.0688559   -0.3375475    1.4613937 
H     0.8717276    1.7952256   -4.3783273 
H     0.1206049   -1.1036690    6.3570690 
H     4.5081326   -5.9417586    1.0706349 
H    -7.1673964    1.6032655    0.3241182 
H     0.8154256    4.2672187   -4.0024976 
