107
Energy =
C    -2.8294791   -1.8100041   -1.9088541 
C    -1.9040843   -2.8850684   -2.0538044 
C    -1.4436108   -3.6210620   -0.9388639 
H    -1.4088484   -3.0383122   -3.0213265 
Pd   -1.0080740   -1.3926501   -0.6830963 
P     1.0809382   -1.3116992    0.3679494 
P    -1.4844258    0.8395288   -0.1621369 
H    -3.5636705   -1.8805814   -1.0945150 
H    -2.0311428   -3.5581566   -0.0084117 
C    -3.9563570    0.8957078   -5.0647635 
C    -2.7466923    0.1859627   -5.1551552 
C    -2.3718244   -0.6989894   -4.1405003 
C    -3.1994051   -0.8987555   -3.0096041 
C    -4.4148458   -0.1829196   -2.9364355 
C    -4.7884355    0.7051015   -3.9526315 
H    -4.2461115    1.5916475   -5.8587141 
H    -2.0907332    0.3295736   -6.0202419 
H    -1.4154199   -1.2281018   -4.2193376 
H    -5.0691026   -0.3246982   -2.0696654 
H    -5.7340250    1.2512214   -3.8719226 
C     1.3317559   -6.8982963   -1.0701869 
C     1.0810377   -6.2234093    0.1353689 
C     0.1707722   -5.1637063    0.1687681 
C    -0.4944090   -4.7434139   -1.0060924 
C    -0.2358445   -5.4346639   -2.2119528 
C     0.6647063   -6.5051608   -2.2405085 
H     2.0400982   -7.7326488   -1.0952164 
H     1.6016250   -6.5222460    1.0505462 
H    -0.0124037   -4.6311285    1.1088158 
H    -0.7662906   -5.1550935   -3.1280852 
H     0.8421625   -7.0401064   -3.1792693 
O     1.8637892    3.8397693    0.7872104 
O     2.3478463    2.2957593    3.0288087 
C     1.5348097    1.5002748    0.5363301 
C     0.5490610    1.5937847    1.6561239 
C     1.8955525    0.2821606   -0.0983950 
C    -0.8363890    1.3302425    1.4982342 
C     2.1837769    2.6901654    0.1207432 
C     1.0163339    2.0060892    2.9307060 
C     2.6378152    5.4818329    2.4084461 
C     2.0783295    4.6939362    3.6122173 
C     2.9871277    4.6637831    1.1694169 
C     2.7453118    3.3496929    3.9385309 
C     2.8365167    0.2806017   -1.1476748 
C    -1.7095881    1.4239155    2.5990773 
C     3.1105175    2.6809773   -0.9350943 
C     0.1416328    2.0669526    4.0303833 
C     3.4263229    1.4768406   -1.5701198 
C    -1.2127619    1.7706429    3.8602152 
C     1.1323732   -1.3876730    2.1965947 
C     2.2505035   -2.6075254   -0.2090332 
C    -3.3003754    1.1091800   -0.0457593 
C    -0.8384483    2.1185666   -1.2987981 
C     2.2539585   -0.9249413    2.9162396 
C     2.1606415   -3.0226815   -1.5548570 
C    -3.9490441    2.1946709   -0.6626694 
C    -0.8245217    3.4777196   -0.9207756 
C     0.0373339   -1.9398433    2.8886239 
C     3.2181618   -3.1931380    0.6303065 
C    -4.0691226    0.1537616    0.6564586 
C    -0.3255091    1.7311992   -2.5504241 
C     2.2794695   -1.0303953    4.3120496 
C     3.0455989   -3.9813359   -2.0611331 
C    -5.3423356    2.3310199   -0.5610474 
C    -0.3074127    4.4376971   -1.7984839 
C     0.0676964   -2.0413606    4.2864803 
C     4.0956920   -4.1602623    0.1210176 
C    -5.4578796    0.2980990    0.7622921 
C     0.1902150    2.6971402   -3.4239570 
C     1.1898556   -1.5905749    4.9975689 
C     4.0155409   -4.5515902   -1.2230143 
C    -6.0977380    1.3900910    0.1519116 
C     0.1983741    4.0490711   -3.0492807 
H     3.5662327    6.0094043    2.6991745 
H     1.9087120    6.2666150    2.1379934 
H     1.0006806    4.5082208    3.4586363 
H     2.1499130    5.3339592    4.5103108 
H     3.2602624    5.3418044    0.3379717 
H     3.8494748    3.9999193    1.3677362 
H     2.5238454    3.0492940    4.9800202 
H     3.8421870    3.3921575    3.8367804 
H     3.1234223   -0.6588966   -1.6264340 
H    -2.7799055    1.2467049    2.4743428 
H     3.5738612    3.6167100   -1.2585931 
H     0.5189122    2.3511386    5.0158603 
H     4.1486308    1.4667707   -2.3927701 
H    -1.8928549    1.8274473    4.7162369 
H     3.0873891   -0.4501740    2.3881620 
H     1.3850868   -2.5955202   -2.2023844 
H    -3.3737489    2.9257111   -1.2376343 
H    -1.1852656    3.7771178    0.0686956 
H    -0.8440088   -2.2727139    2.3276322 
H     3.2851282   -2.9041636    1.6829721 
H    -3.5737432   -0.7077968    1.1214241 
H    -0.3202561    0.6721333   -2.8263540 
H     3.1482043   -0.6608640    4.8665824 
H     2.9642526   -4.2986595   -3.1052127 
H    -5.8375908    3.1757588   -1.0508319 
H    -0.2859606    5.4902657   -1.4984322 
H    -0.7882951   -2.4656890    4.8211690 
H     4.8438295   -4.6115186    0.7810414 
H    -6.0426139   -0.4444370    1.3150980 
H     0.5930105    2.3921524   -4.3951551 
H     1.2114989   -1.6675781    6.0897002 
H     4.7003287   -5.3102521   -1.6156345 
H    -7.1843957    1.5003444    0.2273858 
H     0.6068836    4.8024467   -3.7311163 
