107
Energy =
C    -2.8375665   -1.8062877   -1.8768793 
C    -1.8936100   -2.8623380   -2.0386994 
C    -1.4144256   -3.6020066   -0.9342891 
H    -1.4051351   -2.9981776   -3.0122191 
Pd   -1.0119327   -1.3676915   -0.6617683 
P     1.0788414   -1.2918582    0.3923688 
P    -1.5359222    0.8600737   -0.1508613 
H    -3.5633861   -1.8973784   -1.0568524 
H    -1.9973257   -3.5565894   -0.0000205 
C    -4.0587679    0.8641425   -5.0271566 
C    -2.8118916    0.2201611   -5.1043609 
C    -2.4056347   -0.6508589   -4.0898513 
C    -3.2370576   -0.9007023   -2.9719609 
C    -4.4877009   -0.2477644   -2.9098689 
C    -4.8942126    0.6245430   -3.9271349 
H    -4.3742126    1.5482616   -5.8216178 
H    -2.1520216    0.4045045   -5.9586199 
H    -1.4222392   -1.1296910   -4.1574584 
H    -5.1434975   -0.4261736   -2.0509949 
H    -5.8675320    1.1210112   -3.8560754 
C     1.3921338   -6.8497574   -1.1101746 
C     1.1271691   -6.2003482    0.1061924 
C     0.2080795   -5.1487595    0.1533298 
C    -0.4523928   -4.7116877   -1.0180324 
C    -0.1790684   -5.3772508   -2.2351539 
C     0.7304134   -6.4394463   -2.2776935 
H     2.1076504   -7.6775731   -1.1460437 
H     1.6431048   -6.5131065    1.0193552 
H     0.0127469   -4.6363080    1.1022659 
H    -0.7047491   -5.0844616   -3.1498411 
H     0.9191671   -6.9546574   -3.2252399 
O     1.5833011    3.8388443    0.8088531 
O     2.3010166    2.1282412    3.0458783 
C     1.4745327    1.5054281    0.5819997 
C     0.4672332    1.5887934    1.6833265 
C     1.9054610    0.3055097   -0.0307394 
C    -0.9220093    1.3919511    1.5080277 
C     2.0830170    2.7289897    0.1942984 
C     0.9460523    1.9956452    2.9557884 
C     3.4007051    4.8121414    2.1511794 
C     2.7457833    4.5046603    3.5235975 
C     2.4038553    5.0017378    1.0045381 
C     2.8857614    3.0500933    3.9811023 
C     2.9060212    0.3389875   -1.0239464 
C    -1.8054600    1.5810574    2.5902900 
C     3.0812059    2.7554842   -0.7922851 
C     0.0625049    2.1823193    4.0305378 
C     3.4823723    1.5584491   -1.3965131 
C    -1.3077099    1.9713735    3.8386614 
C     1.0892730   -1.3829877    2.2208320 
C     2.2590537   -2.5761576   -0.1853327 
C    -3.3554256    1.1077459   -0.0598349 
C    -0.8810911    2.1226660   -1.3013468 
C     2.2074609   -0.9567152    2.9671484 
C     2.2012541   -2.9548780   -1.5434636 
C    -4.0185127    2.1613439   -0.7148809 
C    -0.9285492    3.4932922   -0.9722657 
C    -0.0429203   -1.8920545    2.8867561 
C     3.2086897   -3.1816790    0.6602752 
C    -4.1105968    0.1676124    0.6768648 
C    -0.2947155    1.7105186   -2.5130221 
C     2.1908601   -1.0518086    4.3640492 
C     3.1001312   -3.8981590   -2.0543237 
C    -5.4133004    2.2837889   -0.6152905 
C    -0.4028513    4.4394710   -1.8606143 
C    -0.0552045   -1.9815411    4.2851355 
C     4.1013547   -4.1318962    0.1456265 
C    -5.5010985    0.2971821    0.7786866 
C     0.2337421    2.6614173   -3.3944117 
C     1.0626148   -1.5639544    5.0235524 
C     4.0530790   -4.4874201   -1.2098375 
C    -6.1555840    1.3592511    0.1318777 
C     0.1776927    4.0255390   -3.0698164 
H     4.1127611    4.0111004    1.8766734 
H     3.9928928    5.7429511    2.2168721 
H     1.6724609    4.7723191    3.5056972 
H     3.2069898    5.1303546    4.3092784 
H     1.6821212    5.8009151    1.2413886 
H     2.9202005    5.2856651    0.0689960 
H     2.4632312    2.9084658    4.9931909 
H     3.9468045    2.7530362    4.0191757 
H     3.2485151   -0.5868148   -1.4928880 
H    -2.8815755    1.4490042    2.4574932 
H     3.5387483    3.7008471   -1.0941238 
H     0.4368383    2.4864537    5.0112211 
H     4.2614038    1.5768197   -2.1656383 
H    -1.9990373    2.1209682    4.6743969 
H     3.0701561   -0.5151268    2.4585922 
H     1.4401776   -2.5114071   -2.1972537 
H    -3.4535425    2.8778469   -1.3176663 
H    -1.3463562    3.8137283   -0.0124783 
H    -0.9199995   -2.1977180    2.3039297 
H     3.2493696   -2.9219590    1.7218558 
H    -3.6028185   -0.6681903    1.1744018 
H    -0.2395728    0.6427553   -2.7477304 
H     3.0575425   -0.7113579    4.9401833 
H     3.0434762   -4.1881853   -3.1079829 
H    -5.9199599    3.1038982   -1.1343715 
H    -0.4347310    5.5028428   -1.6013698 
H    -0.9403441   -2.3697392    4.7993751 
H     4.8355410   -4.5988714    0.8103754 
H    -6.0756629   -0.4328486    1.3581967 
H     0.6960373    2.3368241   -4.3321577 
H     1.0510851   -1.6307960    6.1165109 
H     4.7494587   -5.2331229   -1.6068819 
H    -7.2434014    1.4586541    0.2059112 
H     0.5931658    4.7685807   -3.7587744 
