107
Energy =
C    -2.3001881    1.8693809    2.4601624 
C    -1.0943801    2.4356084    2.9682309 
C    -0.3032990    3.3106496    2.1904931 
H    -0.6858763    2.0608274    3.9155999 
Pd   -0.5942696    1.3047379    1.1301048 
P     1.4598442    0.9202054    0.0704945 
P    -1.7345549   -0.3132337   -0.1257666 
H    -2.8782246    2.4691946    1.7435538 
H    -0.7772189    3.7814553    1.3139650 
C    -4.5942401   -1.1645801    4.4795412 
C    -3.2195698   -1.0393285    4.7439950 
C    -2.4651822   -0.0567225    4.0972009 
C    -3.0669513    0.8260996    3.1690323 
C    -4.4491887    0.6886132    2.9150400 
C    -5.2047123   -0.2953569    3.5646113 
H    -5.1831282   -1.9366810    4.9852527 
H    -2.7343991   -1.7168722    5.4544562 
H    -1.3909028    0.0146567    4.3016970 
H    -4.9316378    1.3604579    2.1970787 
H    -6.2748735   -0.3836006    3.3505974 
C     3.3417446    5.2009057    3.4538537 
C     3.0074358    5.1338528    2.0917865 
C     1.8168679    4.5210962    1.6918970 
C     0.9435067    3.9461443    2.6438738 
C     1.2910691    4.0238440    4.0121973 
C     2.4763209    4.6505458    4.4117053 
H     4.2711855    5.6868532    3.7677260 
H     3.6804223    5.5573668    1.3397260 
H     1.5647112    4.4604889    0.6270542 
H     0.6149798    3.6204437    4.7730471 
H     2.7231369    4.7162646    5.4764497 
O     1.8004693   -1.5672104   -3.6589842 
O     0.3809591   -3.6153808   -2.1673414 
C     0.1058152   -0.9700927   -2.1486774 
C     0.9815832   -1.6046735   -1.1166015 
C    -1.1633180   -0.4072330   -1.8799996 
C     1.7050412   -0.9002078   -0.1260655 
C     0.5519770   -1.0423286   -3.4939402 
C     1.1411092   -3.0131406   -1.2089752 
C     1.5277454   -3.6370990   -4.9686520 
C     1.9222090   -4.5967408   -3.8150279 
C     2.1552745   -2.2432655   -4.8769226 
C     0.8131795   -4.8372608   -2.7870605 
C    -1.9554608    0.0876073   -2.9360092 
C     2.5487060   -1.5975729    0.7630985 
C    -0.2402596   -0.5479047   -4.5419957 
C     1.9855617   -3.7013632   -0.3236396 
C    -1.4885355    0.0153108   -4.2532899 
C     2.6805662   -2.9867587    0.6588813 
C    -1.6120038   -2.0348825    0.4806609 
C    -3.5246635    0.0855895   -0.2532545 
C     2.9199641    1.4692838    1.0412481 
C     1.6718649    1.6280256   -1.6046853 
C    -2.0536951   -3.1125920   -0.3147561 
C    -4.5385582   -0.8554781    0.0022758 
C     2.8528802    1.3553079    2.4461773 
C     2.6687354    1.1484917   -2.4795824 
C    -1.0372378   -2.2813101    1.7419705 
C    -3.8807013    1.4108709   -0.5902106 
C     4.0871604    1.9855212    0.4456300 
C     0.8206927    2.6711595   -2.0193510 
C    -1.9299105   -4.4236814    0.1612434 
C    -5.8873706   -0.4807826   -0.1005041 
C     3.9467520    1.7206776    3.2391652 
C     2.8140038    1.7181602   -3.7504259 
C    -0.9112212   -3.5950427    2.2095082 
C    -5.2274331    1.7786007   -0.6980145 
C     5.1769857    2.3575820    1.2447092 
C     0.9682745    3.2348472   -3.2937476 
C    -1.3596182   -4.6658230    1.4208926 
C    -6.2350383    0.8299593   -0.4540028 
C     5.1116411    2.2217321    2.6387250 
C     1.9665544    2.7601106   -4.1582092 
H     0.4277205   -3.5314887   -5.0212962 
H     1.8436938   -4.0642531   -5.9377895 
H     2.8200783   -4.2191775   -3.2903838 
H     2.1967811   -5.5854367   -4.2255097 
H     3.2547009   -2.3121146   -4.8322380 
H     1.8950436   -1.6304813   -5.7599256 
H     1.1251923   -5.5788279   -2.0286098 
H    -0.0958941   -5.2245985   -3.2760413 
H    -2.9445417    0.5066836   -2.7381199 
H     3.1164184   -1.0556087    1.5236144 
H     0.1115093   -0.5971095   -5.5755338 
H     2.0967825   -4.7862827   -0.3926740 
H    -2.1101682    0.3972343   -5.0696563 
H     3.3401744   -3.5216910    1.3499248 
H    -2.4628387   -2.9270169   -1.3130844 
H    -4.2811159   -1.8761974    0.2985204 
H     1.9328803    0.9863547    2.9160668 
H     3.3010131    0.3062683   -2.1816424 
H    -0.6738989   -1.4400594    2.3409019 
H    -3.0958241    2.1561681   -0.7710217 
H     4.1467035    2.1074643   -0.6395741 
H     0.0304391    3.0233590   -1.3455316 
H    -2.2674258   -5.2598873   -0.4598490 
H    -6.6683669   -1.2196141    0.1066121 
H     3.8822912    1.6333247    4.3280922 
H     3.5832829    1.3367072   -4.4298976 
H    -0.4557439   -3.7836646    3.1869384 
H    -5.4919707    2.8064052   -0.9673048 
H     6.0798799    2.7595543    0.7733952 
H     0.2989540    4.0392811   -3.6154633 
H    -1.2586660   -5.6932812    1.7862631 
H    -7.2885645    1.1173528   -0.5324686 
H     5.9633041    2.5178187    3.2597196 
H     2.0790680    3.1984847   -5.1553499 
