107
Energy =
C    -2.2479531    1.9728028    2.6639500 
C    -0.9953078    1.8648934    3.3090563 
C     0.1147315    2.6787928    2.9242666 
H    -0.8310379    1.0431267    4.0182032 
Pd   -0.5767816    1.4659396    1.1881882 
P     1.3431757    1.3716114   -0.1288309 
P    -1.6922956   -0.1753101   -0.0881151 
H    -2.4637110    2.9185443    2.1421948 
H    -0.1006571    3.6936157    2.5587810 
C    -5.7651816   -0.3508266    3.5082647 
C    -5.8638163    0.9082669    2.8986718 
C    -4.7076022    1.6443048    2.6171217 
C    -3.4293540    1.1437298    2.9522533 
C    -3.3454033   -0.1294317    3.5623573 
C    -4.5003215   -0.8682189    3.8340803 
H    -6.6685431   -0.9302278    3.7250972 
H    -6.8442201    1.3167758    2.6344181 
H    -4.7904730    2.6239993    2.1350921 
H    -2.3707061   -0.5541858    3.8174087 
H    -4.4139666   -1.8540853    4.3025525 
C     4.1005054    2.0723273    4.4431266 
C     3.2205442    0.9829604    4.3299088 
C     1.9238282    1.1734700    3.8423904 
C     1.4721699    2.4600503    3.4636227 
C     2.3662494    3.5446567    3.5910800 
C     3.6669432    3.3530422    4.0726736 
H     5.1184217    1.9214620    4.8166708 
H     3.5515520   -0.0217514    4.6141514 
H     1.2627560    0.3076344    3.7243859 
H     2.0350672    4.5486081    3.3066976 
H     4.3457567    4.2078319    4.1539379 
O     1.9293214   -1.5517839   -3.4808482 
O     0.7410507   -3.5220197   -1.6679142 
C     0.1869039   -0.9496833   -2.0368122 
C     1.1340879   -1.3225507   -0.9411437 
C    -1.1373880   -0.5012139   -1.8189956 
C     1.7644874   -0.4133198   -0.0597220 
C     0.6231861   -1.1774560   -3.3657495 
C     1.4117062   -2.7102602   -0.8020715 
C     1.8972059   -3.8159085   -4.4533907 
C     2.3999651   -4.5349114   -3.1734251 
C     2.3594735   -2.3620274   -4.5877891 
C     1.3213246   -4.7602289   -2.1103028 
C    -2.0007245   -0.2888373   -2.9119238 
C     2.5769579   -0.8923971    0.9923365 
C    -0.2415745   -0.9677250   -4.4523093 
C     2.2648750   -3.1756774    0.2107260 
C    -1.5486013   -0.5273526   -4.2151899 
C     2.8258521   -2.2631795    1.1130444 
C    -1.4657080   -1.8177367    0.7049527 
C    -3.4930350    0.1361283   -0.2470901 
C     2.8204812    2.3751129    0.3131393 
C     1.1935288    1.8394288   -1.9014300 
C    -1.8802222   -2.9941682    0.0469389 
C    -3.8825381    1.4166789   -0.6974788 
C     2.5833314    3.7612988    0.4291442 
C     0.0461362    2.5033287   -2.3698019 
C    -0.8032325   -1.9109773    1.9441889 
C    -4.4783383   -0.8240224    0.0446720 
C     4.1411147    1.8934055    0.3845861 
C     2.2753457    1.6026704   -2.7736539 
C    -1.6601930   -4.2423993    0.6433215 
C    -5.2354963    1.7138111   -0.9015407 
C     3.6473306    4.6510863    0.6117529 
C    -0.0291663    2.9131810   -3.7081271 
C    -0.5782947   -3.1609372    2.5331286 
C    -5.8333744   -0.5149501   -0.1452484 
C     5.2021101    2.7879518    0.5925309 
C     2.1931861    2.0100472   -4.1095067 
C    -1.0132242   -4.3276711    1.8858793 
C    -6.2136484    0.7438452   -0.6306712 
C     4.9602081    4.1641225    0.7032420 
C     1.0424068    2.6647293   -4.5781256 
H     0.7922620   -3.8452384   -4.5005661 
H     2.2584892   -4.3490730   -5.3515033 
H     3.2355744   -3.9708625   -2.7179086 
H     2.8043080   -5.5297573   -3.4346653 
H     3.4593927   -2.2960758   -4.5543232 
H     2.0281516   -1.9260647   -5.5486699 
H     1.7175830   -5.3415302   -1.2573798 
H     0.4692466   -5.3214659   -2.5280654 
H    -3.0269414    0.0487377   -2.7482489 
H     3.0079025   -0.1959200    1.7156717 
H     0.1003343   -1.1388926   -5.4761055 
H     2.4654972   -4.2445365    0.3177388 
H    -2.2247438   -0.3657780   -5.0610215 
H     3.4653350   -2.6291184    1.9231109 
H    -2.3455897   -2.9345473   -0.9423038 
H    -3.1193533    2.1797973   -0.8931832 
H     1.5569016    4.1425623    0.3633652 
H    -0.7911851    2.6834153   -1.6855335 
H    -0.4343042   -0.9964092    2.4223229 
H    -4.1946063   -1.8062511    0.4326487 
H     4.3527836    0.8277509    0.2619028 
H     3.1703733    1.0861318   -2.4121298 
H    -1.9821190   -5.1530678    0.1276299 
H    -5.5273279    2.7049835   -1.2640739 
H     3.4507272    5.7252434    0.6922754 
H    -0.9271833    3.4227347   -4.0721482 
H    -0.0509052   -3.2255327    3.4904436 
H    -6.5947465   -1.2643032    0.0939730 
H     6.2255216    2.4034541    0.6543960 
H     3.0303989    1.8161416   -4.7880921 
H    -0.8366097   -5.3061877    2.3447863 
H    -7.2727098    0.9760032   -0.7833103 
H     5.7937649    4.8574522    0.8557456 
H     0.9825908    2.9843637   -5.6237581 
