213
Energy =
C    -3.5251858   -1.5192568   -0.0339602 
C    -3.7771083   -0.5599985   -1.0414429 
C    -3.1003439   -0.6078091   -2.2989666 
H    -4.3897112    0.3182703   -0.8010529 
Pd   -1.6211634   -0.4187246   -0.6385681 
P     0.1689987    0.5720115   -1.7276817 
P    -0.6044022   -0.1983411    1.4682515 
H    -3.0997287   -2.4816075   -0.3588201 
H    -2.8166214   -1.5982794   -2.6843792 
C    -5.3758007   -1.7673962    3.8396501 
C    -4.7133943   -2.8716450    3.2831323 
C    -4.1045239   -2.7596430    2.0295035 
C    -4.1408286   -1.5486785    1.3028321 
C    -4.7930758   -0.4385639    1.8872484 
C    -5.4043506   -0.5494215    3.1393970 
H    -5.8677310   -1.8524902    4.8140037 
H    -4.6720899   -3.8237045    3.8220361 
H    -3.5968976   -3.6245632    1.5945596 
H    -4.8274543    0.5196558    1.3619922 
H    -5.9120498    0.3189382    3.5722605 
C    -3.4340453    2.4828759   -5.2821457 
C    -3.1382127    1.1632166   -5.6532664 
C    -3.0412422    0.1643985   -4.6773494 
C    -3.2239809    0.4615279   -3.3094184 
C    -3.5064307    1.8003167   -2.9498129 
C    -3.6169902    2.7968776   -3.9249115 
H    -3.5227701    3.2632837   -6.0447354 
H    -2.9830102    0.9085014   -6.7066056 
H    -2.8228268   -0.8646583   -4.9764030 
H    -3.6180881    2.0685340   -1.8945971 
H    -3.8399321    3.8265320   -3.6246476 
O     3.7419303    2.7122445    0.6554115 
O     1.1481258    4.1363167    2.0659808 
O     5.1986978    1.2017058    1.6273527 
O    -0.1370795    5.7972322    1.0889010 
O    -2.9922456    4.2467130    4.7067247 
O    -1.0447190   -5.2178583    4.7352536 
O     5.6206270   -1.9070811   -1.5491475 
O     1.1964441    0.3629646   -7.5757911 
C     1.6701396    1.4043681    0.9937635 
C     0.8257209    2.4240432    0.3045055 
C     1.1991726    0.1640007    1.5402067 
C     0.1872225    2.2324906   -0.9668164 
C     3.0345427    1.6357449    1.1266482 
C     0.6352293    3.6777670    0.8820746 
C     3.9185483    0.7149549    1.7105116 
C    -0.1435147    4.6859718    0.2919719 
C    -1.2713181    1.2302685    2.4064854 
C    -0.8325603   -1.6944696    2.5037193 
C     1.8379234   -0.1689181   -1.5545694 
C     0.1713422    0.7180862   -3.5514043 
C     2.0899080   -0.7507587    2.1263542 
C    -0.6137457    3.2422240   -1.5365739 
C     3.4772377   -0.4999650    2.2127126 
C    -0.7871753    4.4993783   -0.9222402 
C    -2.8816322    3.0598024    2.6281982 
C    -1.2607757   -2.7875462    4.6643983 
C    -1.1493119    2.6802683    4.3905940 
C    -0.9037708   -4.1461648    2.6011251 
C     3.2197127   -2.1792640   -1.3214558 
C     0.7701537    1.8135991   -5.6621366 
C     4.2283505   -0.0133644   -2.0478721 
C     0.3104952   -0.6384691   -5.5877242 
C    -2.3349304    1.9909313    1.9001260 
C    -1.1152209   -1.6317718    3.8717118 
C    -0.6552527    1.6233517    3.6032552 
C    -0.7756486   -2.9516333    1.8740853 
C     1.9727463   -1.5224806   -1.2478373 
C     0.5297684    1.8582296   -4.2723667 
C     2.9539539    0.5639650   -1.9931457 
C     0.0107333   -0.5037722   -4.2274095 
C    -2.3409033    3.3115961    3.9276643 
C    -1.0474498   -4.0380828    4.0195623 
C     4.3487113   -1.3735558   -1.6222774 
C     0.7720365    0.5287109   -6.2726127 
C     5.0501248    2.5798217    1.2332818 
C     0.4814934    5.3876567    2.3202467 
C    -3.9952164    3.9425321    2.0094534 
C    -1.6435085   -2.5859798    6.1566404 
C    -0.3406724    3.0643353    5.6630343 
C    -0.9624933   -5.5123934    1.8695090 
C     3.2136799   -3.7193199   -1.1268114 
C     0.9944352    3.1727156   -6.3814244 
C     5.4027980    0.7562177   -2.7020738 
C     0.1084454   -1.9997931   -6.2985616 
C    -3.5653801    5.4334960    2.0445659 
C    -5.3438663    3.7695261    2.7536602 
C    -4.2356614    3.5700989    0.5275206 
C    -2.6076835   -1.3730703    6.2852770 
C    -0.3686378   -2.2615447    6.9787656 
C    -2.3958067   -3.7905936    6.7758223 
C     1.1811770    2.9482670    5.3568822 
C    -0.5748500    4.5165833    6.1494416 
C    -0.6594985    2.0719982    6.8108896 
C    -0.9643503   -5.3207132    0.3351200 
C    -2.2735099   -6.2561271    2.2428705 
C     0.2538075   -6.4076308    2.2232099 
C     2.9024139   -4.0488085    0.3544918 
C     4.5094320   -4.4542791   -1.5486473 
C     2.0915602   -4.3063492   -2.0324732 
C     2.4240199    3.6997657   -6.0940662 
C     0.7345755    3.1284346   -7.9078485 
C    -0.0186772    4.2074061   -5.8107586 
C     4.9911290    2.2070423   -3.0457943 
C     6.6729511    0.8330328   -1.8158751 
C     5.7515832    0.0232958   -4.0262333 
C    -0.8622257   -1.8224297   -7.4958486 
C     1.4547173   -2.5878586   -6.7965109 
C    -0.5094123   -3.0468146   -5.3411415 
C    -3.7986404    3.7117757    5.7667584 
C     0.1588948   -5.5266456    5.4515610 
C     6.1464495   -1.9638530   -0.2144899 
C     2.6177189    0.4095312   -7.7687327 
H     1.6984389   -1.6862074    2.5360012 
H    -1.1362460    3.0448413   -2.4760583 
H     4.1655879   -1.2222754    2.6574206 
H    -1.4001595    5.2823251   -1.3744805 
H    -2.7190820    1.7406310    0.9078986 
H    -1.2468565   -0.6549519    4.3375238 
H     0.2499574    1.1005772    3.9218233 
H    -0.6472216   -2.9840512    0.7885128 
H     1.0768770   -2.0847543   -0.9628626 
H     0.6431080    2.8106778   -3.7511082 
H     2.8093517    1.6007394   -2.3033542 
H    -0.3126667   -1.3752492   -3.6518518 
H     5.1261666    3.2272141    2.1302763 
H     5.8114023    2.8304648    0.4798301 
H     1.2212581    6.1418773    2.6314879 
H    -0.3014566    5.2327014    3.0887938 
H    -3.4097929    5.7773098    3.0780526 
H    -4.3517497    6.0580963    1.5841722 
H    -2.6313619    5.5871794    1.4786111 
H    -6.1439312    4.2897036    2.1975886 
H    -5.6210466    2.7033227    2.8298110 
H    -5.3112049    4.1996870    3.7641685 
H    -3.3091788    3.6438674   -0.0670765 
H    -4.6444456    2.5499064    0.4147589 
H    -4.9747254    4.2647954    0.0936720 
H    -2.9391829   -1.2850053    7.3341376 
H    -2.1348430   -0.4150826    6.0167866 
H    -3.4954003   -1.5043286    5.6462256 
H     0.1313405   -1.3602790    6.5817580 
H    -0.6331550   -2.0714703    8.0343475 
H     0.3624766   -3.0860317    6.9539193 
H    -1.7587884   -4.6697013    6.9383481 
H    -2.8016903   -3.4880171    7.7569856 
H    -3.2401471   -4.0989984    6.1364154 
H     1.4634094    3.5420119    4.4726457 
H     1.7536767    3.3130204    6.2269274 
H     1.4997804    1.9077972    5.1765771 
H     0.1777710    4.7550702    6.9210803 
H    -0.4601025    5.2430500    5.3276144 
H    -1.5658674    4.6735227    6.5951137 
H    -0.3838191    1.0429590    6.5236205 
H    -1.7298665    2.0714533    7.0754931 
H    -0.0835649    2.3379399    7.7151368 
H    -1.0685820   -6.3046427   -0.1524883 
H    -1.8092576   -4.6936174   -0.0028877 
H    -0.0276125   -4.8693964   -0.0302353 
H    -3.1599154   -5.6820517    1.9203343 
H    -2.3415458   -6.4279965    3.3270103 
H    -2.3033095   -7.2332653    1.7288336 
H     1.2009817   -5.8526422    2.1157741 
H     0.2870669   -7.2748960    1.5398498 
H     0.1858777   -6.7988319    3.2475089 
H     2.8463166   -5.1422039    0.4990244 
H     1.9431301   -3.6093669    0.6778316 
H     3.6892076   -3.6554893    1.0216297 
H     4.8327647   -4.1605581   -2.5596311 
H     5.3473487   -4.2850913   -0.8579091 
H     4.3042614   -5.5398028   -1.5520344 
H     2.0428012   -5.4017682   -1.9035138 
H     2.3033432   -4.0927235   -3.0947977 
H     1.0934618   -3.9014184   -1.7997800 
H     2.5750506    4.6789003   -6.5826483 
H     3.2006249    3.0101668   -6.4653572 
H     2.5840717    3.8317840   -5.0093350 
H     0.7022506    4.1642032   -8.2891358 
H     1.5141702    2.5967492   -8.4695293 
H    -0.2325921    2.6486290   -8.1324758 
H     0.0772688    5.1567540   -6.3654551 
H    -1.0539034    3.8427798   -5.9167417 
H     0.1553822    4.4355418   -4.7457680 
H     4.7015113    2.7741299   -2.1427612 
H     4.1518362    2.2424086   -3.7613074 
H     5.8447925    2.7249876   -3.5152399 
H     7.3727622    1.5742589   -2.2406850 
H     7.1962290   -0.1318309   -1.7698934 
H     6.4260637    1.1442593   -0.7875200 
H     4.8758160    0.0005000   -4.6996360 
H     6.0702054   -1.0127274   -3.8257322 
H     6.5746480    0.5473236   -4.5451652 
H    -1.0066240   -2.7900168   -8.0091015 
H    -0.4670506   -1.0959701   -8.2216902 
H    -1.8507323   -1.4723572   -7.1495351 
H     1.3003334   -3.6268188   -7.1386466 
H     1.8603915   -2.0191329   -7.6441817 
H     2.2032029   -2.6036031   -5.9841650 
H     0.1580947   -3.2805250   -4.4929825 
H    -0.6823845   -3.9843982   -5.8962392 
H    -1.4841235   -2.7197555   -4.9370034 
H    -4.4407862    4.5357035    6.1129544 
H    -4.4248592    2.8761820    5.4046899 
H    -3.1782522    3.3574217    6.6094619 
H     0.2244751   -4.9593749    6.3971702 
H     0.1153220   -6.6020717    5.6823042 
H     1.0526377   -5.3136067    4.8377691 
H     6.1604114   -0.9622569    0.2510997 
H     7.1728930   -2.3511126   -0.3005473 
H     5.5503970   -2.6437588    0.4226483 
H     2.8005045    0.0676837   -8.7986484 
H     3.0116150    1.4346297   -7.6519999 
H     3.1364147   -0.2575155   -7.0559644 
