213
Energy =
C    -2.7665605   -2.6443784   -0.7260219 
C    -3.1514177   -1.6133051   -1.6148049 
C    -2.3175975   -1.2334774   -2.7128659 
H    -4.0322832   -1.0051873   -1.3669312 
Pd   -1.2458550   -0.9384976   -0.7890912 
P     0.3609189    0.5952291   -1.4668723 
P    -0.6648039   -0.6029607    1.4731271 
H    -2.0554974   -3.3948638   -1.1075982 
H    -1.7090669   -2.0219254   -3.1800315 
C    -5.2535052   -3.9575124    2.5243775 
C    -5.0435584   -2.5842577    2.3212795 
C    -4.2173698   -2.1473046    1.2821970 
C    -3.5781307   -3.0723009    0.4292878 
C    -3.7655710   -4.4509292    0.6676889 
C    -4.6103910   -4.8882890    1.6947343 
H    -5.9089655   -4.3001317    3.3316817 
H    -5.5181601   -1.8510674    2.9816127 
H    -4.0372884   -1.0780681    1.1461273 
H    -3.2666278   -5.1822557    0.0221584 
H    -4.7675338   -5.9613317    1.8462627 
C    -3.0416724    2.2205874   -5.1842489 
C    -3.4203864    2.2353968   -3.8306869 
C    -3.1927999    1.1152710   -3.0254589 
C    -2.5945460   -0.0518346   -3.5549739 
C    -2.2213056   -0.0491440   -4.9154907 
C    -2.4356592    1.0761949   -5.7211231 
H    -3.2144232    3.0988349   -5.8145910 
H    -3.8869711    3.1275963   -3.3993026 
H    -3.4582500    1.1518400   -1.9636849 
H    -1.7537273   -0.9407133   -5.3433843 
H    -2.1225880    1.0582089   -6.7699797 
O     3.7805421    2.3456144    1.4344472 
O     1.3547455    3.7266316    2.6821497 
O     5.0932638    0.7396758    2.4554643 
O     0.0416530    5.4726246    1.9395496 
O    -3.7514968    4.1230339    3.5515078 
O    -1.9207256   -5.2326505    5.0999042 
O     5.9377317   -1.5637640   -1.2715955 
O     1.7089992    1.6903326   -7.1939391 
C     1.6636780    1.0623425    1.4328215 
C     0.9007249    2.1738018    0.8027286 
C     1.1052235   -0.2002197    1.8349261 
C     0.2027294    2.1011413   -0.4457268 
C     3.0101458    1.2492310    1.7323658 
C     0.7886481    3.3870191    1.4780531 
C     3.8089751    0.2727247    2.3442734 
C    -0.0219758    4.4416835    1.0334444 
C    -1.5946710    0.8513576    2.1053408 
C    -1.0598556   -1.9906097    2.6085668 
C     2.0746420   -0.0311529   -1.2808985 
C     0.5078795    1.0747029   -3.2350106 
C     1.9184251   -1.1673199    2.4544545 
C    -0.6656277    3.1361848   -0.8477596 
C     3.2902771   -0.9590188    2.7125769 
C    -0.8014056    4.3305353   -0.1096623 
C    -1.9694985    2.5511155    3.8321561 
C    -0.8827089   -4.3880740    3.1048610 
C    -3.5293446    2.3592468    1.8883017 
C    -1.9156227   -2.8294206    4.7560679 
C     3.5728199   -1.9616691   -1.2028664 
C     0.8805796    2.6367478   -5.0913716 
C     4.4565831    0.3077432   -1.7457158 
C     1.1963648    0.1833231   -5.4136552 
C    -1.2330430    1.4738483    3.3137711 
C    -0.6602664   -3.2937691    2.2539077 
C    -2.7284580    1.2991381    1.4175974 
C    -1.6693658   -1.7792839    3.8484468 
C     2.2848342   -1.4075202   -1.1323286 
C     0.5482049    2.3713648   -3.7456704 
C     3.1481576    0.8028545   -1.6171300 
C     0.7912806   -0.0047519   -4.0885933 
C    -3.0819418    3.0200955    3.0661664 
C    -1.5977138   -4.1424339    4.3185544 
C     4.6591414   -1.0593031   -1.3945921 
C     1.2854728    1.5293894   -5.8907960 
C     5.0027325    2.1451128    2.1632569 
C     1.1685374    5.1468235    2.7756784 
C    -1.6545781    3.0932237    5.2506165 
C    -0.2735569   -5.7761767    2.7843415 
C    -4.8239890    2.7006236    1.0978124 
C    -2.4468258   -2.4199905    6.1591504 
C     3.7659521   -3.4952960   -1.1441456 
C     0.7720364    4.1084402   -5.5747775 
C     5.5103570    1.2533099   -2.3888723 
C     1.5291123   -1.0478279   -6.2927978 
C    -2.8085442    2.6322121    6.1820835 
C    -1.5446178    4.6393169    5.3312850 
C    -0.3199428    2.5179990    5.7818480 
C    -1.3428116   -6.8855071    2.6240159 
C     0.7039484   -6.1569089    3.9297160 
C     0.5432016   -5.7338565    1.4756583 
C    -5.4571873    1.3923548    0.5488979 
C    -5.9331166    3.3632709    1.9546324 
C    -4.4703570    3.6013783   -0.1136375 
C    -1.5633129   -1.2492843    6.6772395 
C    -2.3670165   -3.5113655    7.2549250 
C    -3.9090620   -1.9212465    6.0303335 
C     4.4268332   -3.9205870    0.1903542 
C     4.6269029   -3.9686964   -2.3454532 
C     2.4041079   -4.2183860   -1.2557977 
C     2.1344305    4.8321731   -5.4079004 
C     0.2527906    4.2058542   -7.0317105 
C    -0.2567725    4.8874420   -4.7075300 
C     6.7905148    0.5468234   -2.8970594 
C     4.8488304    1.8937356   -3.6472600 
C     5.9044620    2.3825401   -1.4066296 
C     1.2404979   -2.3715779   -5.5435747 
C     0.6668754   -1.0466489   -7.5821640 
C     3.0373946   -1.0616490   -6.6523729 
C    -3.4557708    5.3743828    2.9097137 
C    -3.2963908   -5.6344400    5.0668033 
C     6.6129546   -1.1626809   -0.0716886 
C     3.0075791    2.2382206   -7.4566974 
H     1.4744774   -2.1154355    2.7690640 
H    -1.2553160    3.0169178   -1.7610533 
H     3.9056671   -1.7234215    3.1924330 
H    -1.4752104    5.1288136   -0.4278807 
H    -0.3534314    1.1083238    3.8476497 
H    -0.1630163   -3.4440611    1.2917516 
H    -2.9836238    0.8046332    0.4745703 
H    -1.9561601   -0.7637636    4.1288128 
H     1.4158731   -2.0487697   -0.9593767 
H     0.3342154    3.2122701   -3.0884360 
H     2.9466476    1.8552778   -1.8380865 
H     0.7380840   -1.0164706   -3.6791573 
H     4.9617242    2.7165992    3.1131029 
H     5.8555233    2.4483332    1.5395678 
H     2.0708224    5.6637421    2.3896143 
H     0.9475482    5.4215038    3.8164401 
H    -3.7695760    3.0501938    5.8399244 
H    -2.6245919    2.9781991    7.2153444 
H    -2.8888801    1.5317308    6.1975246 
H    -1.0370130    4.9206329    6.2704958 
H    -0.9604592    5.0475511    4.4917679 
H    -2.5315909    5.1204955    5.3298799 
H    -0.3393492    1.4196581    5.8759868 
H     0.5260546    2.7944299    5.1278101 
H    -0.1260554    2.9245521    6.7889508 
H    -0.8641627   -7.8049468    2.2426637 
H    -1.8182832   -7.1336400    3.5823776 
H    -2.1225089   -6.5834544    1.9046587 
H     1.1773925   -7.1308344    3.7103103 
H     1.5039410   -5.4007018    4.0241051 
H     0.1760108   -6.2337991    4.8923461 
H     1.3695923   -5.0049985    1.5332896 
H     0.9918934   -6.7249672    1.2920358 
H    -0.0828888   -5.4863070    0.5993851 
H    -5.6841714    0.6867924    1.3664748 
H    -6.4013688    1.6316603    0.0312925 
H    -4.8146538    0.8768300   -0.1834754 
H    -6.8720583    3.3652074    1.3734544 
H    -6.1063527    2.7978513    2.8852512 
H    -5.7134594    4.4032121    2.2279168 
H    -3.7134088    3.1153189   -0.7522605 
H    -4.0586647    4.5722644    0.2062071 
H    -5.3705240    3.7950551   -0.7241416 
H    -1.9132404   -0.9322649    7.6749381 
H    -0.5083932   -1.5628740    6.7633383 
H    -1.6039494   -0.3669789    6.0203849 
H    -1.3703704   -3.9785329    7.2926970 
H    -3.1164077   -4.3053500    7.1331590 
H    -2.5618986   -3.0326432    8.2308171 
H    -3.9839402   -1.0738984    5.3255934 
H    -4.2863937   -1.5837811    7.0121353 
H    -4.5747511   -2.7224650    5.6644880 
H     4.4691057   -5.0225839    0.2572027 
H     3.8449723   -3.5452182    1.0508457 
H     5.4557412   -3.5395598    0.2685583 
H     4.1493670   -3.6780513   -3.2986133 
H     5.6371016   -3.5362128   -2.3142623 
H     4.7131885   -5.0699202   -2.3291783 
H     2.5669157   -5.3095271   -1.2442008 
H     1.8853089   -3.9629288   -2.1972547 
H     1.7333579   -3.9788578   -0.4153294 
H     2.9353417    4.3749760   -6.0061500 
H     2.4512638    4.8079344   -4.3499558 
H     2.0427551    5.8898376   -5.7141728 
H     0.1034424    5.2676462   -7.2952688 
H     0.9319528    3.7611756   -7.7698882 
H    -0.7189875    3.6897773   -7.1241295 
H     0.0938184    5.0524099   -3.6738773 
H    -0.4195353    5.8839410   -5.1525545 
H    -1.2268573    4.3633305   -4.6667476 
H     6.5489708   -0.3226156   -3.5298089 
H     7.4467181    0.2050043   -2.0843516 
H     7.3671448    1.2666372   -3.5047935 
H     5.5898938    2.5181760   -4.1768895 
H     3.9888433    2.5382095   -3.4020210 
H     4.4937410    1.1099161   -4.3384675 
H     6.4686301    1.9738625   -0.5498330 
H     5.0158133    2.9065325   -1.0148687 
H     6.5534429    3.1203065   -1.9112235 
H     1.4564723   -3.2191848   -6.2159146 
H     0.1817897   -2.4546149   -5.2381693 
H     1.8732716   -2.4898007   -4.6457684 
H     0.8395755   -0.1399332   -8.1795101 
H     0.9134070   -1.9300308   -8.1978920 
H    -0.4076929   -1.0999589   -7.3317715 
H     3.3134823   -0.2258875   -7.3085790 
H     3.2864159   -1.9976169   -7.1836060 
H     3.6561422   -1.0119027   -5.7385113 
H    -3.7690415    6.1652745    3.6080172 
H    -2.3771100    5.4699941    2.6983884 
H    -4.0240101    5.4851677    1.9685384 
H    -3.5545868   -6.0670771    4.0847809 
H    -3.4154963   -6.3962367    5.8518159 
H    -3.9728147   -4.7845032    5.2647624 
H     6.7229174   -0.0647617   -0.0133244 
H     7.6068378   -1.6333468   -0.1040084 
H     6.0634229   -1.5044069    0.8244413 
H     3.6730666    2.1288062   -6.5831577 
H     3.4277530    1.6823043   -8.3110493 
H     2.9327974    3.3047511   -7.7351713 
