213
Energy =
C     3.6801857   -0.9035819   -0.0370628 
C     3.1903191   -2.1908079   -0.4264413 
C     2.6173879   -2.4021565   -1.6991860 
H     3.1329082   -2.9993373    0.3150819 
Pd    1.5027441   -0.7988399   -0.4665972 
P    -0.7776369   -1.3353023   -0.7497234 
P     0.9469667    1.1064373    0.7343558 
H     4.0930885   -0.2611235   -0.8287173 
H     2.9006107   -1.6961884   -2.4966686 
C     5.0652191   -0.0187215    3.9453084 
C     4.0581215   -0.9796520    3.7514001 
C     3.6025890   -1.2695503    2.4615319 
C     4.1528321   -0.6188487    1.3325652 
C     5.1619303    0.3439162    1.5462230 
C     5.6090966    0.6473669    2.8378344 
H     5.4200205    0.2115675    4.9549896 
H     3.6207311   -1.4999468    4.6104510 
H     2.7939011   -1.9954686    2.3273095 
H     5.5979292    0.8602204    0.6861852 
H     6.3829480    1.4090862    2.9771479 
C     1.2543097   -6.2507233   -3.0570699 
C     0.8056307   -5.7498247   -1.8249874 
C     1.2339137   -4.4955427   -1.3798205 
C     2.1045648   -3.7084957   -2.1619870 
C     2.5250702   -4.2092983   -3.4133964 
C     2.1185890   -5.4774430   -3.8467452 
H     0.9251420   -7.2358649   -3.4035604 
H     0.1103451   -6.3332241   -1.2123944 
H     0.8602257   -4.1010834   -0.4322253 
H     3.1971694   -3.6102661   -4.0375606 
H     2.4771790   -5.8625700   -4.8071548 
O    -3.4921430    2.8590196    1.0901073 
O    -3.8837934    0.2017351    2.6927362 
O    -4.5908916    3.2718382   -0.9095826 
O    -3.1432194   -0.4827603    4.7697883 
O    -1.7577577   -4.4635078   -5.7816697 
O    -2.6700115   -4.6859091    3.8751530 
O     5.0387169    4.9834010    2.7588033 
O    -1.3288084    5.8127400   -2.2134831 
C    -2.2331093    0.8670729    0.3390715 
C    -1.6545967    0.6057689    1.6855556 
C    -2.0065337    0.0414303   -0.8155320 
C    -0.2599477    0.5871195    2.0075554 
C    -3.1363527    1.9112527    0.1658904 
C    -2.5126210    0.2636969    2.7284932 
C    -3.7959409    2.1643675   -1.0450947 
C    -2.0611615   -0.1637531    3.9854592 
C    -1.1183403   -2.3155103   -2.2592976 
C    -1.3481343   -2.3398053    0.6806975 
C     2.2695962    2.0971085    1.5351720 
C     0.1557669    2.4792227   -0.1996090 
C    -2.6798825    0.3038980   -2.0222107 
C     0.1866838    0.0943770    3.2503219 
C    -3.5952214    1.3690663   -2.1627865 
C    -0.7088375   -0.2979016    4.2671525 
C    -2.3922313   -4.0226345   -3.4806705 
C    -0.8045089   -3.8270816    2.5659727 
C    -0.6334844   -2.6759173   -4.6375141 
C    -3.1818625   -3.3483292    1.9590472 
C     3.2584974    3.4119122    3.3581395 
C    -0.5436039    4.8315457   -0.1301712 
C     4.1439215    3.5959666    1.0324888 
C    -0.4316560    3.5908412   -2.2952642 
C    -2.0934903   -3.3156994   -2.2995960 
C    -0.4176804   -2.9776749    1.5097135 
C    -0.4159536   -1.9896744   -3.4325632 
C    -2.7211216   -2.5361962    0.9108625 
C     2.3100111    2.4868529    2.8738734 
C    -0.1352542    3.6501762    0.5102641 
C     3.2105689    2.6301449    0.6389153 
C     0.0512694    2.4700880   -1.5967849 
C    -1.5880082   -3.7402510   -4.6200911 
C    -2.2016807   -3.9411496    2.8141626 
C     4.1209976    4.0178654    2.3998235 
C    -0.7889082    4.7423455   -1.5300581 
C    -4.5726948    3.5947652    0.4933814 
C    -4.2739082    0.0676291    4.0681109 
C    -3.5948899   -5.0066434   -3.4146962 
C     0.3126226   -4.5720920    3.3496729 
C     0.0449603   -2.1851208   -5.9426376 
C    -4.6913426   -3.6899607    2.0563867 
C     3.2747447    3.6828430    4.8871952 
C    -0.5695172    6.1233953    0.7354625 
C     5.1490800    4.1568833   -0.0042589 
C    -0.4473034    3.6019648   -3.8436118 
C    -3.1829786   -6.2607393   -2.6005647 
C    -4.1781331   -5.4381063   -4.7835235 
C    -4.7648205   -4.3002954   -2.6707097 
C     1.4723197   -4.9409652    2.3841146 
C    -0.1447343   -5.9174216    3.9702415 
C     0.8886977   -3.6393310    4.4460383 
C     1.1163635   -1.1112275   -5.6458139 
C     0.7529192   -3.2989468   -6.7553501 
C    -1.0647398   -1.5450822   -6.8196610 
C    -4.8524181   -5.1564422    1.5713725 
C    -5.5313294   -2.7656192    1.1422616 
C    -5.2856876   -3.5741550    3.4850390 
C     2.6905164    2.4667443    5.6595991 
C     2.3739987    4.8996973    5.2277298 
C     4.7137153    3.8748640    5.4299081 
C    -0.5064433    7.4419942   -0.0740151 
C    -1.8162019    6.1285653    1.6547842 
C     0.7041427    6.1220677    1.6345666 
C     4.8724005    5.6598330   -0.2667425 
C     6.6076659    3.9556894    0.4843334 
C     5.0159120    3.4351393   -1.3671906 
C    -0.0094399    2.2327844   -4.4081526 
C    -1.8481347    3.9063277   -4.4350809 
C     0.5658742    4.6716662   -4.3317923 
C    -1.1494924   -5.7631653   -5.7917463 
C    -2.6398205   -4.0476701    5.1629495 
C     4.5964888    6.3159713    3.0492391 
C    -2.7375393    6.0035465   -2.0219514 
H    -2.5051571   -0.3487363   -2.8819967 
H     1.2603720    0.0122922    3.4400665 
H    -4.1242151    1.5509286   -3.1007150 
H    -0.3553819   -0.6786398    5.2275550 
H    -2.6462994   -3.5509136   -1.3880533 
H     0.6453584   -2.7956602    1.3239718 
H     0.3226093   -1.1848324   -3.3877187 
H    -3.4374230   -2.0306373    0.2602951 
H     1.5782540    2.0808419    3.5702364 
H     0.0206370    3.6577153    1.5920619 
H     3.1787146    2.3001842   -0.4026809 
H     0.3409810    1.5646373   -2.1352361 
H    -4.3939214    4.6738270    0.6189841 
H    -5.5313253    3.2835599    0.9544030 
H    -5.1260832   -0.6224651    4.1430739 
H    -4.5107052    1.0682978    4.4838931 
H    -2.3549688   -6.8041770   -3.0880174 
H    -4.0378622   -6.9537576   -2.5045670 
H    -2.8495429   -5.9839058   -1.5843672 
H    -5.1446766   -5.9409556   -4.6035935 
H    -4.3571060   -4.5712093   -5.4392715 
H    -3.5410285   -6.1514395   -5.3232811 
H    -4.5153886   -4.0467909   -1.6284801 
H    -5.0577967   -3.3709315   -3.1896298 
H    -5.6409757   -4.9707471   -2.6406042 
H     2.2373282   -5.5138517    2.9346987 
H     1.1137823   -5.5641319    1.5471642 
H     1.9790772   -4.0575299    1.9624710 
H    -0.6677660   -6.5393079    3.2247258 
H     0.7488203   -6.4690273    4.3115745 
H    -0.8094713   -5.7985917    4.8352025 
H     0.1241585   -3.3604552    5.1887567 
H     1.7183521   -4.1388295    4.9778009 
H     1.2731246   -2.7066340    3.9987251 
H     1.9252015   -1.5123224   -5.0084394 
H     1.5701773   -0.7790764   -6.5948381 
H     0.6957669   -0.2202330   -5.1562336 
H     1.3565115   -2.8325374   -7.5537795 
H     1.4342470   -3.8855025   -6.1171556 
H     0.0346400   -3.9759966   -7.2358418 
H    -1.5420514   -0.7008066   -6.2907628 
H    -1.8389166   -2.2895965   -7.0680824 
H    -0.6327678   -1.1624642   -7.7621117 
H    -5.9158184   -5.4552270    1.6051892 
H    -4.4961256   -5.2689732    0.5323781 
H    -4.2767173   -5.8410261    2.2163132 
H    -6.5981474   -3.0265893    1.2456104 
H    -5.2750840   -2.8778766    0.0756240 
H    -5.4053910   -1.7034123    1.4172816 
H    -6.3875518   -3.5524006    3.4203949 
H    -4.9568032   -2.6504844    3.9876903 
H    -5.0050439   -4.4278999    4.1155418 
H     2.8361548    2.6259702    6.7417140 
H     3.1972241    1.5287725    5.3758873 
H     1.6060761    2.3389858    5.4980561 
H     2.7067187    5.8266635    4.7393289 
H     1.3352173    4.7065391    4.9058939 
H     2.3674872    5.0731456    6.3188952 
H     4.6788049    3.9680430    6.5295503 
H     5.2200198    4.7606166    5.0262432 
H     5.3349326    2.9970961    5.1800694 
H    -1.4364959    7.6676662   -0.6132421 
H     0.3165611    7.4236928   -0.8070052 
H    -0.3243051    8.2745208    0.6284895 
H    -1.7728590    6.9804743    2.3565600 
H    -2.7445599    6.2296659    1.0657665 
H    -1.8856276    5.1951919    2.2400343 
H     1.6153286    6.0250480    1.0187801 
H     0.7595102    7.0719022    2.1948714 
H     0.7126304    5.3059816    2.3747671 
H     5.5148377    6.0200545   -1.0900175 
H     5.0864584    6.2792845    0.6141004 
H     3.8192355    5.8171757   -0.5606195 
H     6.8315677    2.8814979    0.6109271 
H     6.7834852    4.4624824    1.4438203 
H     7.3112909    4.3596708   -0.2652818 
H     4.0252116    3.5937465   -1.8295734 
H     5.1913093    2.3475143   -1.2805689 
H     5.7734973    3.8366532   -2.0614286 
H    -0.0169989    2.2719878   -5.5107349 
H    -0.6959168    1.4255321   -4.0954489 
H     1.0145174    1.9619504   -4.0964892 
H    -2.1311934    4.9581557   -4.2964335 
H    -1.8389211    3.7044318   -5.5209263 
H    -2.6186418    3.2640341   -3.9766859 
H     0.2795531    5.6737884   -3.9756720 
H     0.5964705    4.6881349   -5.4363329 
H     1.5814981    4.4417549   -3.9624964 
H    -0.0495681   -5.6831413   -5.7637869 
H    -1.4793934   -6.3710499   -4.9310440 
H    -1.4651895   -6.2455694   -6.7289148 
H    -3.4054992   -4.5435154    5.7791015 
H    -1.6555136   -4.1779010    5.6480546 
H    -2.8682814   -2.9714164    5.0804983 
H     4.5410756    6.4802630    4.1403906 
H     3.6129209    6.5205013    2.5929547 
H     5.3473861    7.0056356    2.6296769 
H    -2.9648904    6.3177618   -0.9864359 
H    -3.0385706    6.8038851   -2.7145284 
H    -3.2993210    5.0798013   -2.2442051 
