213
Energy =
C    -3.1174046   -2.0063088    0.1841152 
C    -3.4468761   -1.1186445   -0.8868234 
C    -2.7778343   -1.2213193   -2.1291265 
H    -4.1100429   -0.2659741   -0.6936894 
Pd   -1.3245221   -0.8378013   -0.4100523 
P     0.0976912    0.6984635   -1.4436195 
P     0.1269281   -1.3299002    1.3415758 
H    -2.7957877   -3.0198728   -0.0949450 
H    -2.2820717   -2.1820754   -2.3402938 
C    -4.7353324   -1.7034588    4.1629915 
C    -4.4979807   -0.5366090    3.4163007 
C    -3.9654696   -0.6211223    2.1259509 
C    -3.6705228   -1.8767721    1.5467870 
C    -3.9121697   -3.0380200    2.3103311 
C    -4.4357450   -2.9548995    3.6054142 
H    -5.1473744   -1.6347401    5.1750510 
H    -4.7216956    0.4442608    3.8476298 
H    -3.7574265    0.2959806    1.5639316 
H    -3.6899042   -4.0164711    1.8774379 
H    -4.6117539   -3.8727164    4.1755949 
C    -3.4065328    1.1272271   -5.6693109 
C    -4.0052568    1.5240968   -4.4625221 
C    -3.8017090    0.7789911   -3.2982089 
C    -2.9854812   -0.3750246   -3.3113299 
C    -2.3647714   -0.7438202   -4.5279151 
C    -2.5777080   -0.0051868   -5.6960044 
H    -3.5839628    1.7019617   -6.5839182 
H    -4.6378465    2.4166037   -4.4299096 
H    -4.2865547    1.0952137   -2.3713160 
H    -1.7195093   -1.6281628   -4.5542292 
H    -2.0992057   -0.3161792   -6.6306870 
O     4.5417631   -0.5891538   -1.5088638 
O     4.5113987    0.7133697    1.4428456 
O     4.9597715   -2.8457429   -1.8193874 
O     4.4952794    2.9822988    1.8742861 
O     1.6202815    2.9846946    5.2130960 
O    -1.4135317   -6.0235224    4.7700499 
O     3.2329248   -1.2786025   -6.1483958 
O    -3.0932718    5.4870322   -3.1667343 
C     2.5317594   -0.8402499   -0.0840570 
C     2.4113618    0.6319120    0.1324912 
C     1.7023588   -1.8430793    0.5271074 
C     1.3655182    1.4742766   -0.3633563 
C     3.5920234   -1.3228012   -0.8478513 
C     3.4096176    1.2800003    0.8520202 
C     3.8558406   -2.6896591   -1.0279492 
C     3.3942752    2.6578238    1.1199220 
C     0.5728273   -0.0091540    2.5180207 
C    -0.3971750   -2.7307273    2.4006594 
C     1.1234547    0.0860127   -2.8268636 
C    -0.8956930    2.1062658   -2.0698086 
C     2.0019068   -3.2086473    0.3657170 
C     1.3473501    2.8505698   -0.0796332 
C     3.0858839   -3.6641752   -0.4141554 
C     2.3600648    3.4727712    0.6842680 
C     2.0207787    0.7941893    4.3203136 
C    -1.1379253   -5.0617541    2.5999682 
C     0.0042955    2.1006022    3.6322250 
C    -0.9192908   -3.6302790    4.6300759 
C     1.7295570   -1.7382578   -4.3396775 
C    -2.7423990    3.6686126   -1.6569589 
C     2.9166371    0.4600346   -4.4662738 
C    -1.3819979    3.8384730   -3.7444129 
C     1.6890451   -0.1701963    3.3590906 
C    -0.7857934   -3.9510055    1.8191635 
C    -0.2639544    1.0976561    2.6769429 
C    -0.5100250   -2.5797882    3.7860681 
C     0.9749384   -1.2353092   -3.2695968 
C    -1.9674747    2.5605055   -1.2800595 
C     2.1259920    0.8914316   -3.3843159 
C    -0.6491999    2.7194525   -3.3018767 
C     1.2100636    1.9710200    4.3720595 
C    -1.1273497   -4.9008630    4.0214848 
C     2.6184955   -0.8305253   -4.9959865 
C    -2.3736851    4.3506313   -2.8584664 
C     5.2658116   -1.5334421   -2.3200511 
C     5.3507120    1.8258958    1.7856549 
C     3.1291086    0.5088565    5.3644175 
C    -1.5288490   -6.3946069    1.9117668 
C    -1.0614253    3.2166813    3.8085287 
C    -1.0999531   -3.2976915    6.1362054 
C     1.6186920   -3.2326863   -4.7325299 
C    -3.9744354    4.0841044   -0.8123268 
C     4.0439014    1.4157182   -4.9534765 
C    -1.0379016    4.4190083   -5.1432053 
C     2.4408670    0.3894494    6.7513031 
C     4.2177929    1.6102090    5.4386136 
C     3.8458728   -0.8267149    5.0579984 
C    -0.4555751   -7.4780318    2.1923163 
C    -1.6166079   -6.2303938    0.3751822 
C    -2.9177831   -6.8865638    2.3984415 
C    -0.9418276    4.0547649    5.1052756 
C    -1.0246739    4.1599920    2.5796916 
C    -2.4573283    2.5362501    3.8814507 
C     0.2449042   -3.4958454    6.8843447 
C    -2.2328652   -4.1183108    6.8013038 
C    -1.5033426   -1.8044820    6.3047468 
C     0.7356647   -4.0055348   -3.7225106 
C     3.0273083   -3.8836804   -4.7073405 
C     0.9832367   -3.4099171   -6.1351808 
C    -3.7589126    5.4692555   -0.1495911 
C    -5.2491652    4.1157339   -1.6974495 
C    -4.2403522    3.0703323    0.3245674 
C     5.1905270    0.7093485   -5.7197176 
C     3.4391864    2.5372938   -5.8370117 
C     4.7036832    2.0998016   -3.7203203 
C    -2.2719397    5.0031402   -5.8763776 
C     0.0803786    5.4858706   -4.9998018 
C    -0.4821737    3.3019841   -6.0689559 
C     2.2741279    4.0752183    4.5443661 
C    -0.3541540   -6.6447584    5.5109720 
C     2.6943393   -0.7587139   -7.3728466 
C    -2.4702467    6.7643187   -2.9746956 
H     1.3829241   -3.9549643    0.8680840 
H     0.5357222    3.4660787   -0.4776027 
H     3.3081443   -4.7279762   -0.5248935 
H     2.3401642    4.5430587    0.9024405 
H     2.2971606   -1.0708076    3.2520445 
H    -0.8030101   -4.0327009    0.7304290 
H    -1.1512192    1.1716910    2.0399436 
H    -0.2867636   -1.6086669    4.2270166 
H     0.2635265   -1.8768501   -2.7452054 
H    -2.1978569    2.0188303   -0.3577974 
H     2.3065372    1.8776331   -2.9491467 
H     0.1301853    2.3101304   -3.9447771 
H     6.3470853   -1.3454891   -2.2273991 
H     4.9197169   -1.4511693   -3.3693777 
H     6.0988413    1.9862534    0.9824907 
H     5.8250253    1.6433157    2.7604370 
H     1.9331320    1.3309393    7.0167619 
H     3.1928571    0.1665441    7.5296303 
H     1.6959550   -0.4253133    6.7501965 
H     5.0787047    1.2367065    6.0205811 
H     4.5769042    1.8839806    4.4338025 
H     3.8474247    2.5174295    5.9349805 
H     3.1521931   -1.6855617    5.0760647 
H     4.3457653   -0.8029778    4.0730799 
H     4.6152010   -1.0101262    5.8272998 
H    -0.6799709   -8.3877372    1.6071146 
H     0.5480528   -7.1211500    1.8997809 
H    -0.4288465   -7.7638040    3.2524928 
H    -0.6443327   -5.9654273   -0.0777828 
H    -1.9376568   -7.1866926   -0.0714668 
H    -2.3587429   -5.4651899    0.0830904 
H    -3.7063267   -6.1591321    2.1361076 
H    -3.1670660   -7.8420885    1.9034615 
H    -2.9323165   -7.0383462    3.4868765 
H    -0.0961415    4.7558691    5.0938824 
H    -1.8622586    4.6559133    5.2127076 
H    -0.8436097    3.4126421    5.9949368 
H    -1.8229803    4.9195019    2.6561893 
H    -0.0570508    4.6859606    2.5084293 
H    -1.1669314    3.6018535    1.6382169 
H    -2.5065759    1.8387839    4.7354997 
H    -2.7018725    1.9681160    2.9715299 
H    -3.2395558    3.3042390    4.0128331 
H     0.1362259   -3.2052271    7.9447109 
H     0.5962389   -4.5382644    6.8526285 
H     1.0302556   -2.8632162    6.4342784 
H    -2.0334719   -5.1968529    6.8361254 
H    -3.1818888   -3.9721886    6.2579964 
H    -2.3743808   -3.7631613    7.8370926 
H    -0.6881876   -1.1075401    6.0459336 
H    -1.7582754   -1.6195571    7.3623423 
H    -2.3821320   -1.5552887    5.6856177 
H     0.7359277   -5.0758473   -3.9905240 
H    -0.3158924   -3.6652332   -3.7395644 
H     1.1162098   -3.9152586   -2.6897851 
H     3.7017869   -3.3978418   -5.4285038 
H     3.4751753   -3.8118846   -3.7017371 
H     2.9483451   -4.9537449   -4.9703038 
H     0.7754199   -4.4794302   -6.3169917 
H     1.6545251   -3.0638607   -6.9334601 
H     0.0275917   -2.8604297   -6.2111334 
H    -3.7718221    6.2823234   -0.8875518 
H    -2.7996979    5.5011801    0.3951953 
H    -4.5701585    5.6664280    0.5738680 
H    -6.1155633    4.4282157   -1.0877089 
H    -5.1390829    4.8163498   -2.5374250 
H    -5.4697739    3.1119014   -2.1010330 
H    -3.4160512    3.0319300    1.0550052 
H    -5.1510668    3.3677358    0.8712130 
H    -4.4091439    2.0510774   -0.0658783 
H     5.5697240   -0.1659991   -5.1664871 
H     6.0244171    1.4227188   -5.8404682 
H     4.9007598    0.3691901   -6.7226941 
H     4.2354710    3.2186015   -6.1860993 
H     2.7095201    3.1343522   -5.2631097 
H     2.9214342    2.1343685   -6.7233926 
H     5.0634607    1.3579025   -2.9896302 
H     4.0148691    2.7806884   -3.1927484 
H     5.5597910    2.7080108   -4.0595577 
H    -1.9879338    5.2546377   -6.9131880 
H    -2.6738102    5.9099783   -5.4074009 
H    -3.0859835    4.2595232   -5.9151525 
H     0.9842510    5.0355593   -4.5522798 
H     0.3521097    5.8871292   -5.9926685 
H    -0.2212891    6.3312520   -4.3628165 
H     0.4962737    2.9189094   -5.7383737 
H    -0.3391633    3.7144679   -7.0823060 
H    -1.1785987    2.4510012   -6.1329863 
H     3.1472826    3.7233130    3.9677770 
H     1.5820254    4.5980481    3.8586823 
H     2.5999892    4.7703945    5.3325020 
H     0.6293697   -6.4309776    5.0570129 
H    -0.3563979   -6.3067309    6.5627762 
H    -0.5419142   -7.7306413    5.4904572 
H     3.1263092   -1.3657969   -8.1826081 
H     2.9743697    0.2995101   -7.5230940 
H     1.5925187   -0.8442912   -7.3885398 
H    -2.0028853    7.1221796   -3.9096112 
H    -3.2669636    7.4696598   -2.6883886 
H    -1.7097246    6.7217112   -2.1751600 
