213
Energy =
C     3.8170928   -0.9033701   -0.0505985 
C     3.2252373   -2.1245922   -0.4383130 
C     2.5140614   -2.2520530   -1.6752310 
H     3.1948654   -2.9450779    0.2917851 
Pd    1.5362314   -0.7375383   -0.3915370 
P    -0.5749243   -0.7516547   -1.3464089 
P     0.7514491    0.5209353    1.4415141 
H     4.0659350   -0.1901977   -0.8528756 
H     2.8604229   -1.6456326   -2.5250484 
C     6.0660889   -0.4547118    3.5905113 
C     6.6058799   -0.0472619    2.3612554 
C     5.8512139   -0.1604330    1.1869388 
C     4.5557824   -0.7208742    1.2167222 
C     4.0246622   -1.1234282    2.4597692 
C     4.7671722   -0.9845466    3.6362858 
H     6.6516945   -0.3521786    4.5100037 
H     7.6201610    0.3632982    2.3161278 
H     6.2791671    0.1629454    0.2317783 
H     3.0051523   -1.5133938    2.5055937 
H     4.3254692   -1.2816259    4.5931616 
C     0.3100128   -5.8106050   -2.7011884 
C     0.9303605   -5.0454104   -3.6990583 
C     1.6450135   -3.8887629   -3.3641076 
C     1.7600757   -3.4753696   -2.0196634 
C     1.1201035   -4.2515204   -1.0254420 
C     0.4059434   -5.4062183   -1.3597174 
H    -0.2454653   -6.7162576   -2.9649416 
H     0.8581288   -5.3508223   -4.7467866 
H     2.1221257   -3.2968025   -4.1514125 
H     1.1627530   -3.9303051    0.0204727 
H    -0.0789355   -5.9918485   -0.5712133 
O    -3.9621295    0.0274887    2.6403121 
O    -4.2262935    1.9418239    0.1945203 
O    -4.4877723   -2.2045514    2.9070684 
O    -3.8146763    4.2180425    0.3155747 
O    -2.5144096    4.3316138   -3.8804393 
O    -1.5854913   -3.2715578   -6.6918767 
O    -1.3235641   -3.1730624    5.7113977 
O     5.0874114    3.8589734    3.9167767 
C    -2.3274446   -0.2554470    0.7979268 
C    -1.9531665    1.1860247    0.8155663 
C    -1.7562374   -1.2605499   -0.0476808 
C    -0.6515076    1.6877005    1.1620203 
C    -3.2655438   -0.7154599    1.7193843 
C    -2.9256785    2.1522459    0.5748213 
C    -3.5754834   -2.0729316    1.8882555 
C    -2.6754858    3.5301956    0.6465501 
C    -1.1811223    0.8611002   -1.9919471 
C    -0.8749572   -1.7371431   -2.8706395 
C     0.1007834   -0.6167800    2.7297719 
C     2.0452394    1.5417930    2.2417291 
C    -2.0276776   -2.6262095    0.1689146 
C    -0.4177272    3.0724902    1.2397472 
C    -2.9420369   -3.0628811    1.1502540 
C    -1.4264760    4.0265047    0.9861628 
C    -2.9085189    1.9832981   -3.3289507 
C    -2.1720049   -3.1809804   -4.3626478 
C    -0.7845099    3.1555047   -2.7305925 
C    -0.4313580   -1.6558890   -5.2892903 
C    -1.1533288   -0.9644531    4.8080810 
C     4.0030505    2.9935473    1.9558196 
C     0.0530333   -2.8675206    3.7256587 
C     3.0509605    2.5767178    4.2283572 
C    -2.4355234    0.8716516   -2.6135749 
C    -1.9091136   -2.6570678   -3.0832447 
C    -0.3494630    1.9831072   -2.0874364 
C    -0.1518039   -1.2599490   -3.9723952 
C    -0.6955507   -0.1260777    3.7794405 
C     2.9886623    2.1840608    1.4208225 
C     0.4555670   -1.9705900    2.7158106 
C     2.0850863    1.7493998    3.6231453 
C    -2.0966547    3.1555843   -3.2935033 
C    -1.3723823   -2.7145702   -5.4473417 
C    -0.8140140   -2.3508964    4.7295079 
C     4.0530278    3.1231589    3.3788468 
C    -4.9700660   -0.8672783    3.1357303 
C    -4.8603202    3.2288792    0.2792164 
C    -4.2080525    1.7982949   -4.1605295 
C    -3.3602527   -4.1532899   -4.5689574 
C     0.1799844    4.3540642   -2.9048268 
C     0.2374126   -0.8194823   -6.4170937 
C    -1.8615994   -0.3473376    6.0417621 
C     4.9248105    3.8079630    1.0113880 
C     0.5967579   -4.3224955    3.6657652 
C     2.8890497    2.8280157    5.7545558 
C    -4.3058534    0.3206355   -4.6393740 
C    -4.2293675    2.6620377   -5.4466820 
C    -5.4568798    2.0821832   -3.2874467 
C    -4.0925702   -4.4352470   -3.2360671 
C    -2.8969889   -5.5212957   -5.1321393 
C    -4.3814901   -3.5094372   -5.5441557 
C     0.4687036    4.5417766   -4.4180823 
C    -0.3883393    5.6709628   -2.3144574 
C     1.5235643    4.0870080   -2.1916270 
C     1.7545729   -1.1280185   -6.4741222 
C     0.0455488    0.6870409   -6.0633680 
C    -0.3822444   -0.9993859   -7.8244822 
C    -3.1458328   -1.0962711    6.4862791 
C    -2.2662936    1.1223021    5.7739818 
C    -0.8396471   -0.3816637    7.2106019 
C     4.5054002    5.2971698    1.1406344 
C     6.4377902    3.6799340    1.3223483 
C     4.7424417    3.3718676   -0.4602492 
C     2.0449152   -4.3169230    3.1029653 
C     0.6993157   -5.0133405    5.0499025 
C    -0.2821008   -5.1640712    2.7049239 
C     1.3906313    3.1326367    6.0429751 
C     3.2863649    1.5430784    6.5268966 
C     3.6715552    4.0405789    6.3177268 
C    -3.5202763    5.0849330   -3.1867198 
C    -0.5498418   -4.1373381   -7.1713207 
C    -2.4613900   -3.9714323    5.3438169 
C     6.1440140    3.0902835    4.5100760 
H    -1.5174117   -3.3765275   -0.4411010 
H     0.5766183    3.4288046    1.5231431 
H    -3.1475634   -4.1230221    1.3125447 
H    -1.2349879    5.0988964    1.0631085 
H    -3.0371436   -0.0390088   -2.5852653 
H    -2.5387993   -2.9581435   -2.2477594 
H     0.6467810    1.9328914   -1.6413023 
H     0.6012523   -0.4828640   -3.8008832 
H    -0.9681702    0.9310825    3.7783836 
H     2.9245831    2.0317620    0.3399560 
H     1.0617155   -2.3339360    1.8803314 
H     1.3399651    1.2588641    4.2524180 
H    -5.9101107   -0.7151967    2.5670535 
H    -5.1086416   -0.7044896    4.2137666 
H    -5.4527666    3.2870537    1.2144822 
H    -5.4858670    3.3880029   -0.6115137 
H    -3.3843086   -0.0022375   -5.1550186 
H    -5.1490065    0.2222782   -5.3443792 
H    -4.4952452   -0.3836515   -3.8120610 
H    -5.0881697    2.3548863   -6.0688902 
H    -4.3235947    3.7381145   -5.2511710 
H    -3.3082980    2.5087137   -6.0350819 
H    -5.4455139    1.4495398   -2.3825163 
H    -5.5030635    3.1366939   -2.9699655 
H    -6.3782973    1.8628703   -3.8558131 
H    -4.9426077   -5.1118227   -3.4285054 
H    -3.4331320   -4.9278723   -2.4988217 
H    -4.4995480   -3.5149932   -2.7810705 
H    -2.0776699   -5.9417995   -4.5242270 
H    -3.7399107   -6.2346227   -5.1102548 
H    -2.5625713   -5.4373305   -6.1751977 
H    -3.9185009   -3.2995931   -6.5205513 
H    -5.2340967   -4.1945353   -5.7007208 
H    -4.7725119   -2.5648236   -5.1288070 
H    -0.4596704    4.7527462   -4.9712866 
H     1.1663160    5.3856697   -4.5677887 
H     0.9321409    3.6328877   -4.8411111 
H     0.4147318    6.4275352   -2.2638890 
H    -1.1931501    6.0849043   -2.9353999 
H    -0.7725932    5.5125479   -1.2930537 
H     1.3868348    3.9516269   -1.1035646 
H     2.1948572    4.9496915   -2.3412516 
H     2.0392604    3.1967429   -2.5925905 
H     2.2472510   -0.4984140   -7.2362348 
H     2.2410581   -0.9271987   -5.5024357 
H     1.9424601   -2.1846165   -6.7348128 
H     0.4710816    1.3129868   -6.8670067 
H     0.5408697    0.9771611   -5.1223186 
H    -1.0257048    0.9334920   -5.9627389 
H     0.0169346   -0.2075773   -8.4825424 
H    -1.4796221   -0.9052893   -7.7980350 
H    -0.1303954   -1.9620542   -8.2905233 
H    -3.7285914   -0.4489465    7.1645382 
H    -2.9128879   -2.0227437    7.0273147 
H    -3.7856981   -1.3500005    5.6259659 
H    -1.3969964    1.7722870    5.5798151 
H    -2.9549869    1.2009094    4.9140502 
H    -2.7765000    1.5255906    6.6650608 
H    -1.2852845    0.0596899    8.1203872 
H     0.0676676    0.1943942    6.9575742 
H    -0.5454315   -1.4205544    7.4345864 
H     4.6410237    5.6484814    2.1768488 
H     3.4459622    5.4311155    0.8575952 
H     5.1231838    5.9267822    0.4749108 
H     7.0136507    4.1338416    0.4966601 
H     6.7131071    4.2052608    2.2461651 
H     6.7396066    2.6224686    1.4016109 
H     3.7135618    3.5211469   -0.8198178 
H     5.4042927    3.9767140   -1.1028838 
H     5.0127780    2.3099858   -0.6032738 
H     2.4452066   -5.3446217    3.1160319 
H     2.7094481   -3.6822349    3.7138048 
H     2.1003477   -3.9673982    2.0590352 
H    -0.2737386   -5.2856653    5.4778871 
H     1.2193744   -4.3672140    5.7766495 
H     1.2842837   -5.9429529    4.9365680 
H    -0.3119167   -4.7022516    1.7031377 
H    -1.3207736   -5.2424218    3.0640370 
H     0.1258481   -6.1860899    2.6066146 
H     1.2568782    3.3412793    7.1184607 
H     0.7285071    2.2892670    5.7917971 
H     1.0519364    4.0161118    5.4741838 
H     4.3460975    1.2835509    6.3589618 
H     3.1365276    1.6856452    7.6120500 
H     2.6749720    0.6804004    6.2067146 
H     4.7526519    3.8633678    6.3952427 
H     3.3040017    4.2440219    7.3389740 
H     3.5131912    4.9441386    5.7077826 
H    -3.3817465    6.1389111   -3.4748207 
H    -4.5347506    4.7687305   -3.4907481 
H    -3.4137663    4.9812826   -2.0928009 
H    -0.5642095   -5.1008180   -6.6292543 
H    -0.7579396   -4.3166384   -8.2367998 
H     0.4493932   -3.6795239   -7.0600905 
H    -2.9968003   -4.2063191    6.2764721 
H    -2.1459147   -4.9174732    4.8678671 
H    -3.1300426   -3.4221388    4.6593626 
H     6.6871606    2.5110826    3.7442264 
H     6.8245791    3.8133242    4.9841492 
H     5.7565983    2.3899160    5.2707649 
