213
Energy =
C     3.7451291   -1.0903448    0.1348848 
C     3.2002846   -2.3730146   -0.1885031 
C     2.5656370   -2.6102502   -1.4294178 
H     3.1376907   -3.1384136    0.5960933 
Pd    1.5699846   -0.9060892   -0.2708346 
P    -0.7042411   -1.3780367   -0.6184336 
P     1.0579387    1.0459679    0.8629310 
H     4.1656819   -0.4952630   -0.6890462 
H     2.8282273   -1.9379299   -2.2617145 
C     5.1438640   -0.0127633    4.0669209 
C     4.1270554   -0.9723433    3.9234104 
C     3.6719257   -1.3309101    2.6502713 
C     4.2335749   -0.7520772    1.4877630 
C     5.2572301    0.2056297    1.6510087 
C     5.7026900    0.5786642    2.9248204 
H     5.4960484    0.2727005    5.0634540 
H     3.6784668   -1.4356183    4.8091458 
H     2.8485456   -2.0472866    2.5573751 
H     5.7040681    0.6657822    0.7652385 
H     6.4869973    1.3361921    3.0230818 
C     0.7209435   -6.2800117   -2.6971876 
C     1.1470792   -5.3304827   -3.6366122 
C     1.7421843   -4.1394553   -3.2062928 
C     1.9169368   -3.8678693   -1.8320803 
C     1.4592420   -4.8236677   -0.8982808 
C     0.8745533   -6.0180934   -1.3249946 
H     0.2629569   -7.2168433   -3.0303629 
H     1.0154885   -5.5154257   -4.7074245 
H     2.0843113   -3.4062484   -3.9423725 
H     1.5523128   -4.6264256    0.1707312 
H     0.5285647   -6.7468767   -0.5842413 
O    -3.4539453    2.5866798    1.6290044 
O    -3.6138408   -0.0742654    3.1179681 
O    -4.5982594    3.1632984   -0.2939916 
O    -2.7170074   -0.5332286    5.1979931 
O    -1.9755901   -3.6899379   -6.0118562 
O    -2.9795066   -4.6702135    3.8578492 
O     5.2117092    5.0625651    2.3930214 
O    -1.4157354    5.5692022   -2.1930837 
C    -2.1434892    0.7204358    0.6656944 
C    -1.4748561    0.4434630    1.9669671 
C    -1.9236003    0.0117983   -0.5643256 
C    -0.0667107    0.5454908    2.2162920 
C    -3.0921469    1.7373891    0.6125091 
C    -2.2500676    0.0845907    3.0695723 
C    -3.7804341    2.0923381   -0.5566755 
C    -1.7055379   -0.2040391    4.3293335 
C    -1.0385415   -2.1988272   -2.2228115 
C    -1.3435973   -2.4666287    0.7134052 
C     2.4110457    2.0805353    1.5412478 
C     0.2112599    2.3641769   -0.0925155 
C    -2.6259480    0.3727067   -1.7278064 
C     0.4745562    0.1819874    3.4659531 
C    -3.5624125    1.4294552   -1.7542770 
C    -0.3373392   -0.1941178    4.5552734 
C    -0.6839838   -2.2099812   -4.6508498 
C    -0.9808242   -3.8823992    2.6916036 
C    -2.2069888   -3.8776221   -3.5852730 
C    -3.2855162   -3.4876878    1.8061866 
C     3.4359054    3.5792890    3.1925641 
C    -0.2151233    3.4588412   -2.2436736 
C     4.3167626    3.4640867    0.8603480 
C    -0.7519451    4.6117462   -0.0937849 
C    -0.4069501   -1.6949890   -3.3738321 
C    -0.4912150   -3.0743009    1.6432882 
C    -1.8862328   -3.3044089   -2.3395200 
C    -2.7280026   -2.6949572    0.7949355 
C     2.4606169    2.6299132    2.8229106 
C     0.2430577    2.3593117   -1.4869641 
C     3.3651352    2.4742863    0.5885502 
C    -0.2450047    3.5025438    0.5930439 
C    -1.6598970   -3.2512152   -4.7427996 
C    -2.3979648   -3.9985899    2.8035534 
C     4.2992111    4.0536593    2.1634420 
C    -0.8039701    4.5300152   -1.5209094 
C    -4.6216281    3.2653684    1.1417396 
C    -3.9246941   -0.1427150    4.5187807 
C     0.0720414   -1.6676061   -5.8917200 
C     0.0394719   -4.5927660    3.6262836 
C    -3.1301948   -5.1261489   -3.5878302 
C    -4.7979400   -3.8213365    1.7787598 
C     3.4858443    4.0065994    4.6849239 
C     0.0223219    3.4102225   -3.7775631 
C     5.3375075    3.8709659   -0.2311521 
C    -1.0743779    5.9176974    0.6741280 
C     0.7262464   -2.8212262   -6.6983456 
C     1.2115649   -0.7066771   -5.4784201 
C    -0.8926717   -0.8685488   -6.8060398 
C     1.3270550   -4.9536698    2.8396614 
C    -0.4774216   -5.9447694    4.1846953 
C     0.4571684   -3.6410824    4.7765086 
C    -4.6119593   -4.6818588   -3.7148055 
C    -2.7585682   -6.1418691   -4.6974951 
C    -3.0048417   -5.8938714   -2.2426157 
C    -5.4675106   -3.2790541    0.4933286 
C    -5.5461987   -3.1818533    2.9734312 
C    -4.9848348   -5.3618876    1.7859953 
C     2.9516088    2.8568671    5.5856659 
C     2.5681759    5.2335708    4.9281025 
C     4.9325029    4.2808825    5.1680057 
C     1.4831792    2.9319715   -4.0236710 
C    -0.9577396    2.3969634   -4.4193769 
C    -0.0938872    4.7709254   -4.5081232 
C     5.0940894    5.3341231   -0.6837792 
C     6.7880352    3.7058127    0.2936763 
C     5.1981245    2.9841863   -1.4919895 
C    -0.9535691    5.7065831    2.2018750 
C    -0.0235670    6.9764817    0.2422703 
C    -2.4955237    6.4717129    0.3987750 
C    -3.2379973   -3.3244179   -6.5841322 
C    -3.0197686   -4.0173898    5.1357257 
C     4.7373488    6.4104670    2.5141841 
C    -2.7478170    5.2701257   -2.6392854 
H    -2.4545653   -0.1911280   -2.6484570 
H     1.5583199    0.2014428    3.6059761 
H    -4.0934795    1.7024559   -2.6689284 
H     0.0875218   -0.4542180    5.5270482 
H     0.3210781   -0.8872752   -3.2577222 
H     0.5835897   -2.8941655    1.5502760 
H    -2.3046305   -3.7419456   -1.4335075 
H    -3.3806366   -2.2228674    0.0581068 
H     1.7210133    2.3274878    3.5633860 
H     0.6537635    1.4805716   -1.9957380 
H     3.3284366    2.0135558   -0.4021670 
H    -0.1848113    3.5149200    1.6828986 
H    -4.5809644    4.3242043    1.4359665 
H    -5.5303786    2.7615104    1.5298295 
H    -4.7015978   -0.9023269    4.6877364 
H    -4.2382260    0.8593999    4.8759054 
H     1.4821548   -3.3463214   -6.0892467 
H     1.2415525   -2.4044691   -7.5819875 
H    -0.0190255   -3.5539712   -7.0371415 
H     1.7617861   -0.3895479   -6.3805069 
H     0.8347410    0.2042250   -4.9880297 
H     1.9375622   -1.1914525   -4.8010788 
H    -1.6350587   -1.5201327   -7.2865734 
H    -1.4265063   -0.0920576   -6.2313111 
H    -0.3205436   -0.3688792   -7.6082432 
H     2.0307656   -5.4727118    3.5119976 
H     1.1007831   -5.6304361    1.9984134 
H     1.8549340   -4.0682366    2.4487262 
H    -0.8707398   -6.5786223    3.3719006 
H     0.3660526   -6.4778998    4.6573316 
H    -1.2669849   -5.8403497    4.9387162 
H    -0.4051095   -3.3022410    5.3711925 
H     1.1657518   -4.1496218    5.4550376 
H     0.9514359   -2.7431008    4.3672176 
H    -4.8145540   -4.1452046   -4.6533182 
H    -5.2759341   -5.5641536   -3.6776911 
H    -4.8843637   -4.0120434   -2.8802846 
H    -3.3631971   -7.0563706   -4.5671951 
H    -2.9295979   -5.7626963   -5.7130294 
H    -1.6938714   -6.4209207   -4.6223274 
H    -3.4174842   -5.3304218   -1.3888221 
H    -1.9548430   -6.1410743   -2.0158232 
H    -3.5770280   -6.8346342   -2.3118424 
H    -6.5293399   -3.5789648    0.4871197 
H    -5.4336548   -2.1764816    0.4383561 
H    -5.0019791   -3.6886977   -0.4199120 
H    -6.6256210   -3.4038817    2.8996549 
H    -5.4202216   -2.0861721    2.9507187 
H    -5.1919703   -3.5673985    3.9391278 
H    -6.0603416   -5.6073073    1.7262207 
H    -4.5709364   -5.8122501    2.7000227 
H    -4.4822805   -5.8149780    0.9129756 
H     3.1218083    3.1201627    6.6436114 
H     3.4737564    1.9078300    5.3752920 
H     1.8670080    2.6898098    5.4681465 
H     2.8756452    6.1148257    4.3460807 
H     1.5268034    4.9939368    4.6488012 
H     2.5805383    5.5111831    5.9974584 
H     4.9226348    4.4626150    6.2570128 
H     5.4009573    5.1459007    4.6819005 
H     5.5736631    3.4033660    4.9728906 
H     1.6857315    1.9288617   -3.6146916 
H     2.2016473    3.6357703   -3.5682051 
H     1.6817133    2.8899433   -5.1086226 
H    -0.7557518    2.2980972   -5.5006867 
H    -0.8656738    1.3996409   -3.9566960 
H    -2.0049851    2.7221916   -4.2957659 
H     0.4969331    5.5524278   -4.0041785 
H     0.2983688    4.6477398   -5.5333597 
H    -1.1288262    5.1286060   -4.5964296 
H     5.7384081    5.5688634   -1.5498673 
H     5.3320884    6.0552541    0.1093880 
H     4.0422305    5.4794560   -0.9883993 
H     7.5057598    3.9970281   -0.4939484 
H     6.9890522    2.6527337    0.5596258 
H     6.9663933    4.3291277    1.1816121 
H     4.2132946    3.0997518   -1.9779423 
H     5.3519878    1.9133556   -1.2669762 
H     5.9669660    3.2795618   -2.2260179 
H    -1.1812451    6.6547750    2.7182260 
H     0.0650358    5.4050565    2.5019209 
H    -1.6649603    4.9417664    2.5627695 
H    -0.0915234    7.1736114   -0.8400814 
H    -0.1955527    7.9255783    0.7816724 
H     0.9983833    6.6256039    0.4739333 
H    -2.5792560    6.9009722   -0.6086319 
H    -2.7257848    7.2706872    1.1254478 
H    -3.2579316    5.6827140    0.5080491 
H    -3.0666867   -3.1426917   -7.6578888 
H    -3.9692063   -4.1461188   -6.4794426 
H    -3.6405946   -2.4096559   -6.1149091 
H    -2.2033593   -4.3774542    5.7877169 
H    -2.9427878   -2.9224833    5.0310991 
H    -3.9817860   -4.2819859    5.6045383 
H     3.7608293    6.5367779    2.0140216 
H     5.4847125    7.0614885    2.0317139 
H     4.6505758    6.7025915    3.5761217 
H    -3.1476745    6.2006700   -3.0694722 
H    -2.7436438    4.4816088   -3.4145907 
H    -3.3844851    4.9379330   -1.8002849 
