213
Energy =
C    -3.2988344   -2.0556713    0.0683161 
C    -3.7302585   -0.9021289   -0.6274625 
C    -3.2032506   -0.5735163   -1.9162249 
H    -4.3666531   -0.1770696   -0.1014017 
Pd   -1.5761123   -0.6303290   -0.4115712 
P     0.0105186    0.6583727   -1.5167289 
P    -0.2926674   -0.5883907    1.5674104 
H    -2.8873560   -2.8808889   -0.5350230 
H    -2.9256577   -1.4074930   -2.5776220 
C    -4.9033585   -3.1897773    3.8912839 
C    -4.7315541   -4.1435150    2.8768083 
C    -4.1655981   -3.7739866    1.6507681 
C    -3.7949339   -2.4342624    1.4052582 
C    -3.9574163   -1.4889059    2.4403461 
C    -4.5020479   -1.8623261    3.6721011 
H    -5.3399940   -3.4807560    4.8522467 
H    -5.0403811   -5.1813810    3.0395297 
H    -4.0346959   -4.5230536    0.8618141 
H    -3.6231046   -0.4601192    2.2849717 
H    -4.6047272   -1.1173078    4.4679150 
C    -3.9434429    3.1815548   -3.8969964 
C    -3.7970598    2.0018022   -4.6394351 
C    -3.5693359    0.7813378   -3.9914836 
C    -3.4863509    0.7134240   -2.5850255 
C    -3.6378387    1.9118114   -1.8491290 
C    -3.8653512    3.1306389   -2.4949451 
H    -4.1142952    4.1358930   -4.4051067 
H    -3.8562086    2.0302576   -5.7312861 
H    -3.4489866   -0.1329901   -4.5810523 
H    -3.5430761    1.8896789   -0.7585112 
H    -3.9761633    4.0459603   -1.9035334 
O     4.4084274    1.5822757    0.2879667 
O     2.7469137    3.2323052    2.2178699 
O     5.6459041   -0.2953929    0.8170510 
O     1.6298577    5.2317887    1.9419452 
O    -1.6691817    4.3958848    4.6414263 
O    -1.2539606   -5.2230660    5.2779761 
O     4.8535665   -2.5299484   -2.9968661 
O    -0.4269740    2.0163416   -7.3421218 
C     2.1829315    0.6633342    0.8666102 
C     1.4855327    1.9325043    0.5236857 
C     1.5466758   -0.5201424    1.3780618 
C     0.4547043    2.0800635   -0.4599777 
C     3.5696672    0.6033827    0.7605340 
C     1.8030811    3.0905851    1.2303804 
C     4.3210113   -0.5385422    1.0746040 
C     1.1130922    4.3014700    1.0730189 
C    -0.6992499    0.9434822    2.4991134 
C    -0.5821684   -1.9799353    2.7304141 
C     1.5420721   -0.2857100   -1.8730997 
C    -0.2856361    1.2517510   -3.2338396 
C     2.3144962   -1.6562320    1.6938059 
C    -0.2788072    3.2795659   -0.5620614 
C     3.7165104   -1.6973629    1.5365828 
C     0.0317173    4.4179654    0.2107266 
C    -0.2126108    2.5274671    4.3067514 
C    -0.7248925   -4.4052241    3.0818892 
C    -2.2909744    2.7700129    2.9393354 
C    -0.8958096   -2.8368047    5.0141707 
C     3.7239480   -0.3736050   -2.9852984 
C    -0.0633656    2.8523355   -5.0833375 
C     2.5659500   -2.4690898   -2.2811690 
C    -0.4483855    0.4304886   -5.5402870 
C     0.1184237    1.3895760    3.5534251 
C    -0.5631036   -3.2978670    2.2339258 
C    -1.8819125    1.6343894    2.2114698 
C    -0.7391940   -1.7721853    4.1036397 
C     2.6306582    0.3519134   -2.4811210 
C    -0.0699045    2.5470459   -3.7044788 
C     1.4935073   -1.6845550   -1.8293694 
C    -0.4522773    0.2069851   -4.1605134 
C    -1.3952775    3.2418703    3.9389543 
C    -0.9802482   -4.1431994    4.4641571 
C     3.7241872   -1.7794129   -2.7430860 
C    -0.3384975    1.7861885   -5.9832901 
C     5.7274304    1.1289023    0.6342743 
C     2.8688972    4.6516210    2.3927734 
C     0.6095737    2.8850515    5.5721739 
C    -0.5175754   -5.8459375    2.5507885 
C    -3.6744208    3.3928392    2.6005889 
C    -0.8933161   -2.4613053    6.5233201 
C     4.7517150    0.3996766   -3.8595651 
C     0.2983799    4.3150294   -5.4705691 
C     2.4410273   -4.0106434   -2.3172441 
C    -0.4446324   -0.7740019   -6.5140819 
C     1.9116894    2.0518658    5.6428502 
C    -0.2748873    2.5443751    6.8024850 
C     1.0227433    4.3785044    5.6620087 
C     0.6763035   -6.4795145    3.3160062 
C    -0.1544466   -5.8369174    1.0510922 
C    -1.7715322   -6.7409264    2.7138807 
C    -4.6760639    2.2644358    2.2304244 
C    -4.3327537    4.1524321    3.7809833 
C    -3.5338865    4.3260458    1.3705006 
C    -0.6988041   -3.6380522    7.5110273 
C    -2.2035922   -1.7078139    6.8677089 
C     0.3113853   -1.5094209    6.7727146 
C     5.6501510    1.3008392   -2.9785220 
C     3.9486688    1.3111226   -4.8349931 
C     5.6421511   -0.4994734   -4.7514673 
C     1.4453725    4.8205122   -4.5468557 
C     0.8247175    4.4883123   -6.9177658 
C    -0.9341493    5.2277339   -5.2409246 
C     0.9720940   -4.4393891   -2.0930339 
C     2.8568354   -4.5531051   -3.7104594 
C     3.3084785   -4.6581338   -1.2096285 
C    -0.4819753   -2.1155820   -5.7433590 
C    -1.6541214   -0.7655999   -7.4825959 
C     0.8770204   -0.7398084   -7.3279695 
C    -1.3532754    5.6307932    3.9776317 
C    -2.6261868   -5.3768509    5.6635241 
C     5.8951443   -2.3786346   -2.0229816 
C    -1.6601257    2.5778922   -7.8055345 
H     1.8159311   -2.5418015    2.0966029 
H    -1.1154300    3.3363437   -1.2646702 
H     4.2949644   -2.5903390    1.7841610 
H    -0.5408277    5.3440801    0.1261610 
H     1.0326870    0.8357339    3.7761925 
H    -0.4151354   -3.4498967    1.1612384 
H    -2.4965416    1.2728907    1.3806698 
H    -0.7309138   -0.7496725    4.4865561 
H     2.6011032    1.4383047   -2.6061293 
H     0.1503175    3.3434192   -2.9939793 
H     0.5919926   -2.1591605   -1.4307800 
H    -0.5401915   -0.8131195   -3.7792794 
H     6.0397261    1.6046368    1.5865658 
H     6.4218814    1.3574152   -0.1860480 
H     3.6997580    5.0310644    1.7634405 
H     3.0177494    4.8801028    3.4572279 
H     1.7189489    0.9680030    5.7054625 
H     2.4718656    2.3327062    6.5507518 
H     2.5567774    2.2385731    4.7659220 
H     0.2725570    2.7643808    7.7368134 
H    -1.1995068    3.1448055    6.7899778 
H    -0.5493944    1.4756489    6.8086553 
H     1.3905003    4.7552485    4.6948813 
H     0.1885374    5.0154170    5.9846467 
H     1.8336385    4.4889221    6.4030516 
H     0.8668258   -7.4994083    2.9359865 
H     1.5932709   -5.8814964    3.1673960 
H     0.4670188   -6.5421816    4.3948716 
H     0.7707201   -5.2685211    0.8569708 
H     0.0189174   -6.8718885    0.7103294 
H    -0.9636217   -5.4141999    0.4285497 
H    -2.6658742   -6.2510544    2.2932054 
H    -1.6167768   -7.6911674    2.1726283 
H    -1.9613968   -6.9878755    3.7670156 
H    -4.7758111    1.5356589    3.0531139 
H    -5.6695305    2.7046367    2.0409849 
H    -4.3911085    1.7170598    1.3170541 
H    -5.3843329    4.3644677    3.5195116 
H    -4.3235112    3.5422443    4.6994157 
H    -3.8505175    5.1115910    4.0089208 
H    -3.1041952    3.7778079    0.5149989 
H    -2.8713391    5.1811550    1.5805158 
H    -4.5214334    4.7216655    1.0726714 
H    -0.4974734   -3.2165475    8.5117268 
H    -1.5874430   -4.2768236    7.6064765 
H     0.1550052   -4.2724917    7.2257436 
H    -3.0881037   -2.3480261    6.7044550 
H    -2.3228698   -0.8041476    6.2439823 
H    -2.1980482   -1.3944498    7.9269561 
H     1.2633707   -2.0080621    6.5203185 
H     0.3433775   -1.2202387    7.8375473 
H     0.2456485   -0.5819874    6.1835001 
H     6.2992842    1.9302007   -3.6129891 
H     6.3049049    0.6893589   -2.3332136 
H     5.0450169    1.9597039   -2.3323216 
H     3.2405628    0.7179380   -5.4383308 
H     3.3720304    2.0902693   -4.3110637 
H     4.6467468    1.8223578   -5.5207269 
H     6.1759969    0.1450739   -5.4720379 
H     5.0398477   -1.2261891   -5.3207809 
H     6.4006231   -1.0560774   -4.1834716 
H     2.3270652    4.1599623   -4.6144964 
H     1.1491241    4.8943739   -3.4871250 
H     1.7492985    5.8317673   -4.8669443 
H     1.2564930    5.5001050   -7.0134840 
H     1.6131744    3.7535356   -7.1489729 
H     0.0400968    4.3984539   -7.6806169 
H    -1.2803520    5.1658022   -4.1939703 
H    -0.6788378    6.2797551   -5.4614219 
H    -1.7800645    4.9400667   -5.8883432 
H     0.3040975   -4.0076309   -2.8599971 
H     0.5948786   -4.1446913   -1.1007406 
H     0.8977693   -5.5383108   -2.1576892 
H     2.7083773   -5.6474263   -3.7406011 
H     3.9108462   -4.3345352   -3.9323563 
H     2.2308953   -4.1025536   -4.5013651 
H     3.0532206   -4.2406732   -0.2194757 
H     4.3807803   -4.4940485   -1.3933261 
H     3.1339776   -5.7486729   -1.1796615 
H    -0.4345322   -2.9478566   -6.4660889 
H    -1.4147834   -2.2353144   -5.1618516 
H     0.3749024   -2.2227407   -5.0550470 
H    -1.5705067    0.0356200   -8.2294858 
H    -1.6981001   -1.7245635   -8.0285912 
H    -2.6059009   -0.6461554   -6.9344948 
H     0.9613528    0.1933904   -7.9060492 
H     0.9093960   -1.5921722   -8.0301740 
H     1.7471911   -0.8194064   -6.6525153 
H    -1.2738554    6.3970454    4.7637043 
H    -0.3976246    5.5576700    3.4310736 
H    -2.1548069    5.9234231    3.2756210 
H    -3.0371912   -4.4421850    6.0839142 
H    -3.2450247   -5.6749424    4.7995512 
H    -2.6466057   -6.1691614    6.4267698 
H     5.5529618   -2.7084169   -1.0248126 
H     6.2325971   -1.3299744   -1.9445355 
H     6.7282290   -3.0130950   -2.3603459 
H    -1.5217708    2.7885796   -8.8765603 
H    -2.4933128    1.8629480   -7.6783225 
H    -1.9084764    3.5135323   -7.2741861 
