213
Energy =
C     3.8248351   -0.7153007   -0.1784325 
C     3.3072842   -2.0049632   -0.4434874 
C     2.5470156   -2.2680815   -1.6259011 
H     3.3702765   -2.7703277    0.3422915 
Pd    1.5491171   -0.7103671   -0.3957935 
P    -0.6141865   -0.8846196   -1.2218784 
P     0.8092619    0.6905235    1.3529452 
H     3.9846920   -0.0524504   -1.0440554 
H     2.8055953   -1.6957088   -2.5291431 
C     6.2307940    0.1650729    3.2725831 
C     5.0481607   -0.5770329    3.4212173 
C     4.2461661   -0.8483519    2.3093150 
C     4.6044517   -0.3785285    1.0276236 
C     5.7750696    0.3995021    0.8973191 
C     6.5897758    0.6529095    2.0071818 
H     6.8650457    0.3688350    4.1414591 
H     4.7448699   -0.9375138    4.4096259 
H     3.3141184   -1.4044759    2.4363156 
H     6.0610469    0.7819778   -0.0888567 
H     7.5100479    1.2329115    1.8818628 
C     0.4336794   -5.9533614   -2.3444008 
C     0.5903116   -5.4801715   -1.0301257 
C     1.2799391   -4.2877384   -0.7904313 
C     1.8420958   -3.5457967   -1.8553418 
C     1.6758937   -4.0360571   -3.1677325 
C     0.9738895   -5.2230048   -3.4120870 
H    -0.1109253   -6.8839764   -2.5337770 
H     0.1649210   -6.0391709   -0.1895679 
H     1.3635814   -3.9105801    0.2342297 
H     2.1002736   -3.4753173   -4.0056302 
H     0.8453311   -5.5733040   -4.4412283 
O    -3.8873218    0.2451826    2.7814507 
O    -4.2671874    1.8947221    0.2394080 
O    -4.3900580   -1.9551612    3.2605683 
O    -3.8933344    4.1670034    0.0372359 
O    -2.4225278    3.9973332   -4.1712163 
O    -2.0050757   -3.6880460   -6.3233820 
O    -1.0487944   -2.7667376    5.9113667 
O     5.0048784    4.3832154    3.5734754 
C    -2.2977604   -0.1942646    0.9291216 
C    -1.9425829    1.2438822    0.7876873 
C    -1.7410635   -1.2686178    0.1630338 
C    -0.6312097    1.7966973    0.9936836 
C    -3.2071996   -0.5737754    1.9138874 
C    -2.9468457    2.1642312    0.5010275 
C    -3.5000402   -1.9120665    2.2146953 
C    -2.7194534    3.5416739    0.3702628 
C    -1.2048656    0.6598756   -2.0150353 
C    -0.9876475   -1.9991850   -2.6344876 
C     0.2263934   -0.3655642    2.7402572 
C     2.0780338    1.8096782    2.0666282 
C    -1.9841104   -2.6104370    0.5200546 
C    -0.4205188    3.1821879    0.8655122 
C    -2.8679082   -2.9613620    1.5619251 
C    -1.4553169    4.0848980    0.5394971 
C    -2.9319921    1.7602299   -3.3604259 
C    -2.3402320   -3.6117899   -3.8976273 
C    -0.6386704    2.7278513   -3.1901559 
C    -0.6047380   -2.2356955   -5.0453406 
C    -0.9522143   -0.6119631    4.8762928 
C     3.8002413    3.5163989    1.6841211 
C     0.2719230   -2.5494591    3.8775680 
C     3.1567859    2.8698516    4.0058401 
C    -2.5077928    0.7130411   -2.5254534 
C    -1.9976783   -2.9584456   -2.6944042 
C    -0.2704115    1.6312048   -2.3947609 
C    -0.2763954   -1.6822461   -3.8039026 
C    -0.5464584    0.1730273    3.7850626 
C     2.8560488    2.5986112    1.1971156 
C     0.6216268   -1.7068852    2.8029133 
C     2.2341002    1.9623648    3.4470911 
C    -2.0107576    2.8298311   -3.5611785 
C    -1.6854729   -3.1727690   -5.0841322 
C    -0.5828354   -1.9932260    4.8697888 
C     3.9970253    3.5689399    3.0994855 
C    -4.8829706   -0.6059732    3.3684770 
C    -4.9143599    3.1775540    0.2553423 
C    -4.2942473    1.5772003   -4.0874780 
C    -3.3949512   -4.7484235   -3.8157282 
C     0.4334671    3.7266698   -3.6855882 
C     0.1961695   -1.8182717   -6.3036111 
C    -1.6456390    0.0528473    6.0936661 
C     4.5094424    4.5055840    0.7254028 
C     0.8538866   -3.9911947    3.8930659 
C     3.1004933    3.0489747    5.5496699 
C    -4.5184791    2.5232762   -5.2919030 
C    -5.4697895    1.7280319   -3.0922287 
C    -4.3152799    0.1312628   -4.6709587 
C    -3.4084577   -5.3711009   -2.3911399 
C    -3.0687441   -5.9157671   -4.7817120 
C    -4.8177300   -4.1832954   -4.0685820 
C     0.3205686    3.9100087   -5.2225849 
C     0.2903859    5.0926273   -2.9699687 
C     1.8526819    3.1826429   -3.4029089 
C     1.3702241   -0.8769267   -5.9393767 
C    -0.7126720   -1.0341583   -7.2853039 
C     0.7999124   -3.0632468   -7.0047945 
C    -2.0591762    1.5086695    5.7710394 
C    -0.6151278    0.0665639    7.2553751 
C    -2.9233638   -0.6834676    6.5781971 
C     6.0509390    4.3521604    0.7276455 
C     4.0312130    4.3076748   -0.7284171 
C     4.1295569    5.9514156    1.1467316 
C     0.9894784   -4.6037437    5.3108968 
C    -0.0097894   -4.9092880    2.9903418 
C     2.2956119   -3.9765035    3.3147050 
C     1.6102022    3.2464647    5.9491400 
C     3.6347963    1.7658527    6.2363221 
C     3.8445250    4.2845453    6.1135615 
C    -3.2153637    4.8484008   -3.3323611 
C    -3.2272925   -3.2970753   -6.9625608 
C    -2.1745962   -3.6103663    5.6172372 
C     6.1839754    3.7089354    4.0319029 
H    -1.4758014   -3.4107787   -0.0251464 
H     0.5788688    3.5884421    1.0419038 
H    -3.0527810   -4.0033709    1.8314246 
H    -1.2709272    5.1572365    0.4425282 
H    -3.1910971   -0.1134076   -2.3087968 
H    -2.5554082   -3.2054050   -1.7927781 
H     0.7631954    1.5168347   -2.0557157 
H     0.5249402   -0.9421433   -3.7382094 
H    -0.8382445    1.2238621    3.7315677 
H     2.7098800    2.4877369    0.1191682 
H     1.2151654   -2.1048870    1.9734068 
H     1.6120315    1.3651331    4.1170462 
H    -5.8290149   -0.5162673    2.7964296 
H    -5.0131370   -0.3443535    4.4277867 
H    -5.3794962    3.3417127    1.2488563 
H    -5.6542719    3.2251731   -0.5561218 
H    -4.7040370    3.5647942   -4.9941105 
H    -5.4085570    2.1758332   -5.8459592 
H    -3.6581475    2.5127457   -5.9806122 
H    -6.4247060    1.4730081   -3.5853834 
H    -5.3424322    1.0729857   -2.2134034 
H    -5.5469048    2.7704949   -2.7362427 
H    -3.4483612   -0.0305214   -5.3349102 
H    -4.2904865   -0.6485473   -3.8924265 
H    -5.2385925   -0.0165111   -5.2584907 
H    -4.0609997   -6.2609538   -2.3947208 
H    -2.3973324   -5.6836748   -2.0793313 
H    -3.8107720   -4.6825770   -1.6278240 
H    -2.0549525   -6.3043486   -4.5801833 
H    -3.7889752   -6.7363974   -4.6177610 
H    -3.1068324   -5.6319651   -5.8409094 
H    -4.9281920   -3.7396068   -5.0682691 
H    -5.5689321   -4.9873969   -3.9688168 
H    -5.0535929   -3.3997954   -3.3264705 
H    -0.6481735    4.3440042   -5.5084577 
H     1.1256677    4.5784919   -5.5766104 
H     0.4346621    2.9376518   -5.7350216 
H     1.1200272    5.7614273   -3.2614625 
H    -0.6529919    5.5901214   -3.2392982 
H     0.3205614    4.9634288   -1.8735714 
H     2.0473347    3.0606111   -2.3254749 
H     2.6015125    3.8929768   -3.7925617 
H     2.0189340    2.2088075   -3.8977763 
H     1.9335670   -0.6344856   -6.8563804 
H     1.0215063    0.0757424   -5.5018725 
H     2.0774935   -1.3475629   -5.2327421 
H    -0.1087471   -0.6457155   -8.1247703 
H    -1.1843707   -0.1744130   -6.7766558 
H    -1.5030073   -1.6661062   -7.7115722 
H     1.3694629   -2.7499454   -7.8979717 
H     0.0158505   -3.7688708   -7.3146583 
H     1.4967295   -3.5905024   -6.3291305 
H    -2.5499179    1.9497038    6.6551923 
H    -2.7689358    1.5473499    4.9255513 
H    -1.1963950    2.1503924    5.5275212 
H    -0.3228291   -0.9623905    7.5222603 
H     0.2917341    0.6284576    6.9734307 
H    -1.0544974    0.5480696    8.1476474 
H    -3.5105874   -0.0081851    7.2247157 
H    -2.6817818   -1.5791831    7.1655655 
H    -3.5605957   -0.9868798    5.7328724 
H     6.3450817    3.3029175    0.5556478 
H     6.4927722    4.6966718    1.6723265 
H     6.4823279    4.9648858   -0.0836731 
H     4.5272208    5.0465435   -1.3806712 
H     4.2791903    3.3035194   -1.1172737 
H     2.9430029    4.4622964   -0.8255893 
H     4.4713482    6.1692124    2.1700193 
H     4.5980221    6.6777053    0.4583326 
H     3.0348806    6.0931801    1.1015465 
H     1.6033342   -5.5189635    5.2408314 
H     0.0289149   -4.8854656    5.7606633 
H     1.4931896   -3.9042538    5.9985301 
H    -0.0710731   -4.5017758    1.9670231 
H    -1.0395702   -5.0037610    3.3709404 
H     0.4306101   -5.9211521    2.9379000 
H     2.9477605   -3.2964920    3.8891554 
H     2.3317385   -3.6764035    2.2547291 
H     2.7234937   -4.9914169    3.3732043 
H     1.5317209    3.3761295    7.0425707 
H     0.9824114    2.3849101    5.6754028 
H     1.1901001    4.1438419    5.4625681 
H     4.6932708    1.5855803    5.9794847 
H     3.5596470    1.8595911    7.3344597 
H     3.0576985    0.8755313    5.9289194 
H     4.9377113    4.1761968    6.1022223 
H     3.5456436    4.4129820    7.1689218 
H     3.5818361    5.2034720    5.5662453 
H    -3.4733890    5.7283224   -3.9403003 
H    -4.1391834    4.3438362   -2.9966127 
H    -2.6468974    5.1624515   -2.4379072 
H    -3.0090884   -3.1803383   -8.0369719 
H    -3.9978453   -4.0799881   -6.8446851 
H    -3.6038048   -2.3420520   -6.5574286 
H    -2.9084566   -3.0892862    4.9790844 
H    -2.6365217   -3.8634187    6.5836006 
H    -1.8551686   -4.5440290    5.1201845 
H     6.7364816    3.2663790    3.1850819 
H     6.8060103    4.4719883    4.5234258 
H     5.9397553    2.9062429    4.7496308 
