213
Energy =
C    -3.1472556   -2.2827387   -0.1902218 
C    -3.5424076   -1.2228559   -1.0397804 
C    -2.8580362   -0.9666174   -2.2692525 
H    -4.2898005   -0.5050704   -0.6746897 
Pd   -1.4601072   -0.7834882   -0.5522330 
P     0.1915784    0.5244832   -1.5298859 
P    -0.4839729   -0.4882364    1.5764784 
H    -2.6055313   -3.1218828   -0.6558503 
H    -2.4356120   -1.8323247   -2.8006584 
C    -5.2145309   -3.2296050    3.4571688 
C    -4.8722790   -1.8967873    3.1784996 
C    -4.1787302   -1.5812313    2.0069182 
C    -3.8061532   -2.5902273    1.0934359 
C    -4.1206800   -3.9309127    1.4037843 
C    -4.8346864   -4.2446897    2.5663905 
H    -5.7674655   -3.4761290    4.3694322 
H    -5.1388687   -1.1011675    3.8819620 
H    -3.8927070   -0.5453363    1.8087048 
H    -3.8273865   -4.7276826    0.7112101 
H    -5.0963175   -5.2870744    2.7762176 
C    -3.5345041    2.5193480   -4.7092658 
C    -3.1693121    1.2999560   -5.2964678 
C    -2.9707988    0.1668552   -4.4976833 
C    -3.1189952    0.2294415   -3.0960375 
C    -3.4756470    1.4701229   -2.5181458 
C    -3.6878605    2.5997147   -3.3143400 
H    -3.6945128    3.4044991   -5.3332848 
H    -3.0321800    1.2286866   -6.3802478 
H    -2.6919251   -0.7825523   -4.9640811 
H    -3.5614207    1.5540192   -1.4296874 
H    -3.9652223    3.5497452   -2.8448881 
O     4.2190629    1.8828808    0.7301979 
O     2.2055201    3.5747565    2.2982740 
O     5.4767866    0.1412438    1.5839653 
O     1.0051849    5.4562969    1.7122282 
O    -2.6098363    4.6105968    3.9577375 
O    -1.6910721   -4.8602519    5.5258742 
O     5.4096264   -2.3412202   -2.1283311 
O     0.7240597    1.3540915   -7.4328832 
C     1.9910088    0.8731082    1.1094545 
C     1.2752701    2.0603544    0.5688258 
C     1.3568644   -0.3035981    1.6393029 
C     0.3826608    2.0541979   -0.5508443 
C     3.3807097    0.8955337    1.1847668 
C     1.4175806    3.2885347    1.2106396 
C     4.1445916   -0.1637662    1.6952744 
C     0.6762231    4.4272466    0.8631819 
C    -1.1175592    1.0804026    2.2960779 
C    -0.8551804   -1.7963294    2.8105362 
C     1.8208852   -0.3150060   -1.5928394 
C     0.1109894    0.9548965   -3.3145811 
C     2.1370778   -1.3550036    2.1553397 
C    -0.4099930    3.1815052   -0.8473065 
C     3.5476613   -1.3154770    2.1843452 
C    -0.2838373    4.3946012   -0.1387368 
C    -1.0020712    2.8395025    4.0004688 
C    -1.4461912   -2.4835123    5.0966501 
C    -2.8709644    2.8092956    2.3402828 
C    -0.8954073   -4.1883073    3.3609582 
C     4.1214943   -0.2995957   -2.4362006 
C     0.3723768    2.4292885   -5.2595367 
C     3.0544635   -2.4244382   -1.6797628 
C     0.3221688   -0.0487079   -5.5423846 
C    -0.4920712    1.6729063    3.4082127 
C    -1.2236803   -1.4885898    4.1231696 
C    -2.2879508    1.6526235    1.7840203 
C    -0.6818496   -3.1455335    2.4453662 
C     2.9238263    0.3651720   -2.1238507 
C     0.2307258    2.2281154   -3.8698326 
C     1.8756180   -1.7046233   -1.4288830 
C     0.1156314   -0.1640945   -4.1642044 
C    -2.1626014    3.4281631    3.4079311 
C    -1.3675266   -3.8334455    4.6631319 
C     4.2022022   -1.6755144   -2.0705031 
C     0.5007170    1.2677403   -6.0740711 
C     5.5094701    1.5431308    1.2636166 
C     2.2050952    5.0082943    2.3715597 
C    -0.3968556    3.3621685    5.3291319 
C    -1.6883332   -1.9861174    6.5500208 
C    -4.2273298    3.2953916    1.7560751 
C    -0.5210175   -5.6477408    2.9996126 
C     5.1715280    0.4883547   -3.2697774 
C     0.3732525    3.8956886   -5.7703799 
C     3.0573842   -3.9690247   -1.5966782 
C     0.3521103   -1.3249995   -6.4195832 
C     0.9312480    2.6389738    5.6573965 
C    -1.4267459    3.0580869    6.4510776 
C    -0.0970014    4.8851354    5.3356011 
C    -3.0783480   -1.3048488    6.6351737 
C    -0.5930845   -0.9315284    6.8782553 
C    -1.5702434   -3.0603643    7.6590487 
C    -5.0896386    2.0680182    1.3523345 
C    -5.0984196    4.0938932    2.7597612 
C    -3.9702541    4.1354510    0.4785488 
C     0.0677858   -5.7324267    1.5757511 
C    -1.7288498   -6.6161353    3.0563603 
C     0.5778341   -6.1280300    3.9865267 
C     4.4056721    1.1904900   -4.4324696 
C     6.2535514   -0.3891630   -3.9444092 
C     5.8577498    1.5707976   -2.4022547 
C    -0.3598945    4.0392936   -7.1282774 
C    -0.3937223    4.8143389   -4.7779194 
C     1.8249509    4.4379747   -5.8487641 
C     1.6136759   -4.5082051   -1.4736472 
C     3.6524600   -4.5704152   -2.8977416 
C     3.8591716   -4.4563381   -0.3645582 
C     0.0235655   -2.5893570   -5.5885866 
C    -0.6987531   -1.2309683   -7.5566291 
C     1.7694258   -1.5394507   -7.0109333 
C    -2.2815484    5.8088565    3.2352423 
C    -3.0930126   -5.0845208    5.7247688 
C     6.3107236   -2.0142525   -1.0617570 
C     2.0209437    1.7249889   -7.9186309 
H     1.6389159   -2.2354329    2.5697733 
H    -1.1480062    3.1214432   -1.6523335 
H     4.1359476   -2.1433460    2.5866995 
H    -0.9011783    5.2639594   -0.3746608 
H     0.4138463    1.2110721    3.8059356 
H    -1.3342181   -0.4402890    4.4076940 
H    -2.7500446    1.1782171    0.9122697 
H    -0.3708699   -3.3742422    1.4222798 
H     2.8246596    1.4310690   -2.3497019 
H     0.2323445    3.0987128   -3.2163163 
H     0.9709959   -2.2232516   -1.0987400 
H     0.0021793   -1.1546612   -3.7169707 
H     5.6895547    2.1279168    2.1888292 
H     6.2814509    1.7305034    0.5039605 
H     3.0884322    5.4058876    1.8312524 
H     2.1874156    5.3231600    3.4242662 
H     0.8000987    1.5526288    5.7933465 
H     1.3345679    3.0359953    6.6043458 
H     1.6841558    2.8000979    4.8654515 
H    -1.0359908    3.3962744    7.4278295 
H    -2.3761690    3.5828726    6.2544449 
H    -1.6302864    1.9756462    6.5185710 
H     0.3764243    5.2084260    4.3954177 
H    -1.0075153    5.4805450    5.4842265 
H     0.5935788    5.1177992    6.1649441 
H    -3.2479081   -0.9063300    7.6513733 
H    -3.1592124   -0.4659908    5.9210427 
H    -3.8887546   -2.0193315    6.4076877 
H    -0.6266008   -0.0636573    6.2020914 
H    -0.7360184   -0.5533241    7.9053789 
H     0.4139547   -1.3786307    6.8104915 
H    -0.6467807   -3.6517206    7.5567184 
H    -1.5444069   -2.5445283    8.6351922 
H    -2.4227310   -3.7527516    7.6859368 
H    -5.2635450    1.4027600    2.2153728 
H    -6.0700466    2.4144969    0.9843643 
H    -4.6383485    1.4717926    0.5425146 
H    -6.1121723    4.2029322    2.3359002 
H    -5.1838669    3.5613675    3.7215037 
H    -4.7176657    5.1023638    2.9656918 
H    -3.3899988    3.5543865   -0.2581699 
H    -3.3995837    5.0515280    0.7005108 
H    -4.9278486    4.4317857    0.0140659 
H     0.3546853   -6.7757390    1.3600163 
H    -0.6591712   -5.4222979    0.8035199 
H     0.9754503   -5.1139649    1.4713259 
H    -2.5744759   -6.2304386    2.4622239 
H    -2.0653869   -6.7868249    4.0877910 
H    -1.4351301   -7.5946453    2.6367905 
H     1.4682296   -5.4771828    3.9218008 
H     0.8866568   -7.1578325    3.7316305 
H     0.2100260   -6.1203138    5.0238696 
H     5.1269091    1.7036126   -5.0928305 
H     3.6848652    1.9463622   -4.0800078 
H     3.8483060    0.4496030   -5.0315122 
H     6.9814958   -0.8011491   -3.2314486 
H     5.8054184   -1.2295373   -4.4991495 
H     6.8131551    0.2381687   -4.6607770 
H     6.5085453    2.2074385   -3.0276328 
H     6.4922777    1.1044756   -1.6280760 
H     5.1167286    2.2145522   -1.8979578 
H    -0.4131695    5.1074794   -7.4026156 
H    -1.3918500    3.6550310   -7.0456204 
H     0.1270694    3.4976060   -7.9488428 
H    -0.4996325    5.8170627   -5.2260631 
H    -1.4025481    4.4218865   -4.5641154 
H     0.1385370    4.9467505   -3.8199819 
H     1.8188893    5.4944367   -6.1723356 
H     2.3045716    4.3866086   -4.8550408 
H     2.4533172    3.8725757   -6.5515251 
H     0.9916431   -4.2004569   -2.3333751 
H     1.1178452   -4.1702601   -0.5495907 
H     1.6355934   -5.6109682   -1.4489369 
H     3.5985687   -5.6729951   -2.8554438 
H     4.7021239   -4.2747457   -3.0369478 
H     3.0731608   -4.2339922   -3.7765531 
H     3.4723551   -3.9931662    0.5605033 
H     4.9278563   -4.2134778   -0.4589640 
H     3.7698048   -5.5529817   -0.2644523 
H     0.0206193   -3.4672710   -6.2567103 
H    -0.9742622   -2.5303293   -5.1176372 
H     0.7724623   -2.7758632   -4.7980001 
H    -0.6684676   -2.1485236   -8.1710552 
H    -1.7169627   -1.1389321   -7.1384616 
H    -0.5107798   -0.3640533   -8.2061210 
H     2.0407854   -0.7548569   -7.7293724 
H     1.8099601   -2.5064217   -7.5435501 
H     2.5274699   -1.5593496   -6.2076314 
H    -2.3627573    6.6392415    3.9530809 
H    -1.2551368    5.7642228    2.8330421 
H    -2.9923732    5.9835464    2.4075656 
H    -3.5575009   -5.4956935    4.8118507 
H    -3.1766965   -5.8129294    6.5452337 
H    -3.6188708   -4.1525574    5.9970790 
H     6.5652919   -0.9390765   -1.0581524 
H     7.2199894   -2.6099027   -1.2315064 
H     5.8710304   -2.2698357   -0.0803343 
H     2.0362154    2.7878566   -8.2198748 
H     2.8006565    1.5436894   -7.1588478 
H     2.2234386    1.1064653   -8.8085828 
