213
Energy =
C     3.7124772   -1.1324625    0.3072282 
C     3.0955659   -2.4096389    0.1307980 
C     2.4222755   -2.7419782   -1.0661283 
H     3.0173678   -3.0848413    0.9924417 
Pd    1.5374225   -0.8754527   -0.0853829 
P    -0.7417990   -1.2709901   -0.4888653 
P     1.1309840    1.1831357    0.9082301 
H     4.1270138   -0.6389563   -0.5841524 
H     2.6926773   -2.1671351   -1.9655498 
C     5.3666145    0.1732927    4.0649966 
C     5.8868497    0.6479774    2.8524423 
C     5.3491346    0.2159314    1.6347946 
C     4.2796369   -0.7039215    1.6011516 
C     3.7675247   -1.1782250    2.8314326 
C     4.3054358   -0.7467999    4.0482912 
H     5.7843446    0.5159309    5.0170950 
H     6.7171443    1.3595376    2.8530607 
H     5.7600788    0.5946951    0.6938586 
H     2.9181051   -1.8681557    2.8360636 
H     3.8895226   -1.1244033    4.9887943 
C     0.4957339   -6.4667725   -2.0140513 
C     0.7235465   -6.1323534   -0.6682068 
C     1.3304549   -4.9185337   -0.3337160 
C     1.7288619   -4.0104776   -1.3416970 
C     1.4739926   -4.3538301   -2.6880212 
C     0.8647117   -5.5663978   -3.0244156 
H     0.0318568   -7.4245232   -2.2712292 
H     0.4283115   -6.8263036    0.1258303 
H     1.4953986   -4.6791099    0.7200821 
H     1.7693960   -3.6582419   -3.4778389 
H     0.6828048   -5.8071906   -4.0767047 
O    -3.4209917    2.5409002    2.0192381 
O    -3.3180910   -0.3580384    3.3502744 
O    -4.7020289    3.1415467    0.1907767 
O    -2.2530299   -0.8951986    5.3354750 
O    -1.7355304   -3.3848115   -6.0241682 
O    -3.0995444   -5.2520572    3.3271997 
O     5.6655005    4.8697689    2.2590624 
O    -1.6744208    5.4800587   -2.1909074 
C    -2.0933230    0.7774177    0.9016373 
C    -1.3203884    0.4694445    2.1411900 
C    -1.9295251    0.1299119   -0.3685111 
C     0.0857962    0.6977150    2.3272707 
C    -3.0840858    1.7519170    0.9486611 
C    -1.9841247   -0.0668181    3.2439137 
C    -3.8562340    2.1210443   -0.1639745 
C    -1.3415023   -0.3932971    4.4484171 
C    -1.0328039   -2.0083746   -2.1432816 
C    -1.4727305   -2.4108087    0.7516122 
C     2.5348968    2.2117805    1.4886159 
C     0.2261721    2.4565479   -0.0509871 
C    -2.7005980    0.5099843   -1.4792936 
C     0.7228457    0.3444384    3.5336145 
C    -3.6777462    1.5271983   -1.4042032 
C     0.0198175   -0.2006197    4.6271927 
C    -2.1902699   -3.5854365   -3.6336658 
C    -3.4781507   -3.5009684    1.6718865 
C    -0.4371058   -2.0482774   -4.5243528 
C    -1.2205654   -3.9233016    2.6590757 
C     4.4915761    3.4655389    0.7035927 
C    -0.9286618    4.6127399   -0.0789552 
C     3.6053493    3.8154774    3.0099923 
C    -0.2995823    3.4803257   -2.2151730 
C    -1.9524560   -3.0399914   -2.3567505 
C    -2.8611105   -2.6076843    0.7764295 
C    -0.2520922   -1.5548268   -3.2224218 
C    -0.6767388   -3.0183352    1.7331042 
C     3.4641870    2.5396350    0.4862464 
C    -0.3198555    3.5629973    0.6213390 
C     2.5967739    2.8726830    2.7174518 
C     0.2508528    2.4334935   -1.4456343 
C    -1.4863610   -2.9991149   -4.7229013 
C    -2.6099900   -4.2353955    2.5317874 
C     4.5967015    4.0309405    2.0126904 
C    -0.9751366    4.5073838   -1.5044884 
C    -4.6381323    3.1959030    1.6294396 
C    -3.4608937   -1.0918716    4.5812508 
C    -3.1912920   -4.7694124   -3.7294628 
C    -5.0322674   -3.5771342    1.6511521 
C     0.5155515   -1.6221496   -5.6717681 
C    -0.3402295   -4.5135184    3.7899453 
C     5.3900011    3.9159026   -0.4744286 
C    -1.3827512    5.8890163    0.6728754 
C     3.4915665    4.5511310    4.3763094 
C    -0.0743880    3.4219338   -3.7503182 
C    -2.9137448   -5.7227827   -4.9186832 
C    -4.6393560   -4.2171226   -3.8000978 
C    -3.0863550   -5.6466431   -2.4502777 
C    -5.5044925   -4.4503884    0.4603572 
C    -5.6115058   -2.1478403    1.4379027 
C    -5.6589729   -4.1064577    2.9654376 
C    -0.2302136   -0.8145417   -6.7661341 
C     1.6612101   -0.7300721   -5.1399477 
C     1.1685104   -2.8759523   -6.3145115 
C    -0.1184422   -6.0365559    3.6069462 
C    -1.0001213   -4.2415865    5.1681902 
C     1.0533497   -3.8431320    3.8108340 
C     5.0178494    3.1715015   -1.7781473 
C     6.8970043    3.6606315   -0.2184922 
C     5.1516475    5.4321193   -0.7089608 
C    -2.8397424    6.3199388    0.3608735 
C    -1.2828652    5.6939783    2.2035733 
C    -0.4173996    7.0325193    0.2584106 
C     2.0079783    4.9643081    4.6009243 
C     3.9080088    3.5813157    5.5124677 
C     4.3027475    5.8667289    4.4877766 
C    -0.9484914    2.2941759   -4.3536468 
C    -0.3431124    4.7414673   -4.5155040 
C     1.4261591    3.0978849   -4.0049853 
C    -2.8999229   -2.8294677   -6.6511438 
C    -3.3407084   -6.4967023    2.6542439 
C     6.7226114    4.3266940    3.0581825 
C    -2.9789165    5.0690077   -2.6256264 
H    -2.5527139   -0.0080839   -2.4311238 
H     1.8035396    0.4768902    3.6250346 
H    -4.2692863    1.8222933   -2.2738703 
H     0.5204409   -0.4626373    5.5620597 
H    -2.4907405   -3.4495725   -1.5021228 
H    -3.4833686   -2.0310475    0.0875606 
H     0.5281303   -0.8146938   -3.0247611 
H     0.3832792   -2.7548442    1.7704875 
H     3.3576553    2.0656499   -0.4932414 
H    -0.2651740    3.5924246    1.7115806 
H     1.8222792    2.6847009    3.4629475 
H     0.7232905    1.5807363   -1.9453953 
H    -4.6116888    4.2458525    1.9564855 
H    -5.5044667    2.6498384    2.0546880 
H    -3.5766405   -2.1693996    4.3509201 
H    -4.3190899   -0.6969535    5.1475697 
H    -3.1413956   -5.2823351   -5.8979665 
H    -3.5405856   -6.6244321   -4.8041878 
H    -1.8571925   -6.0397310   -4.9294341 
H    -5.3647575   -5.0499339   -3.8260958 
H    -4.8607613   -3.5956924   -2.9143914 
H    -4.8039503   -3.5938814   -4.6938743 
H    -2.0518482   -5.9896907   -2.2893175 
H    -3.4161301   -5.1224515   -1.5395771 
H    -3.7362120   -6.5310475   -2.5654408 
H    -6.6076587   -4.5024417    0.4407002 
H    -5.1681482   -4.0179905   -0.4974073 
H    -5.1151427   -5.4803000    0.5191303 
H    -5.3752370   -1.7376875    0.4416202 
H    -6.7115775   -2.1887970    1.5156929 
H    -5.2287824   -1.4392825    2.1897567 
H    -5.2610323   -3.5764829    3.8469010 
H    -6.7489777   -3.9352317    2.9294820 
H    -5.4987404   -5.1810900    3.1237267 
H    -0.8308987   -0.0029710   -6.3219958 
H     0.5031514   -0.3590051   -7.4552178 
H    -0.8900273   -1.4558934   -7.3662299 
H     2.3520518   -0.4958171   -5.9674874 
H     1.2922939    0.2275603   -4.7379405 
H     2.2489075   -1.2362659   -4.3526096 
H     0.4088424   -3.5625951   -6.7154671 
H     1.7850431   -3.4224530   -5.5794145 
H     1.8324104   -2.5641224   -7.1403641 
H     0.6301997   -6.3932890    4.3365397 
H    -1.0421338   -6.6069194    3.7763604 
H     0.2590664   -6.2637980    2.5942699 
H    -0.3606553   -4.6466274    5.9728729 
H    -1.9884374   -4.7200150    5.2363529 
H    -1.1204143   -3.1586633    5.3399423 
H     1.6284552   -4.2261083    4.6708698 
H     0.9758298   -2.7473102    3.9140210 
H     1.6398341   -4.0699100    2.9023503 
H     5.6511590    3.5455122   -2.6004648 
H     3.9661073    3.3380688   -2.0671920 
H     5.1895666    2.0821788   -1.6968040 
H     7.3008157    4.3420076    0.5424765 
H     7.0805434    2.6185837    0.0993418 
H     7.4635117    3.8316762   -1.1508368 
H     5.7645556    5.7840052   -1.5583936 
H     5.4250595    6.0150689    0.1843392 
H     4.0901264    5.6247483   -0.9456510 
H    -3.5332126    5.4650173    0.4168021 
H    -2.9265476    6.7728981   -0.6361551 
H    -3.1631866    7.0742549    1.0997919 
H    -1.6067231    6.6193738    2.7095360 
H    -1.9281328    4.8673806    2.5517602 
H    -0.2505123    5.4865181    2.5307709 
H    -0.4759662    7.2152447   -0.8272399 
H    -0.6866016    7.9664638    0.7843001 
H     0.6250881    6.7764709    0.5181386 
H     1.9226097    5.5148011    5.5535369 
H     1.3197136    4.1052980    4.6606408 
H     1.6628424    5.6281625    3.7897279 
H     3.7871650    4.0686022    6.4965050 
H     4.9627402    3.2719000    5.4118743 
H     3.2902121    2.6657878    5.5012150 
H     4.1344931    6.5211645    3.6175232 
H     5.3838578    5.7045162    4.5920875 
H     3.9693300    6.4033343    5.3934170 
H    -0.7675545    2.2110109   -5.4399693 
H    -2.0225270    2.4977568   -4.2006302 
H    -0.7278393    1.3168455   -3.8911716 
H     0.1618063    5.5966031   -4.0392055 
H     0.0534274    4.6321275   -5.5407619 
H    -1.4116468    4.9808971   -4.6053133 
H     2.0669032    3.9010655   -3.6018280 
H     1.6108451    3.0222680   -5.0907090 
H     1.7482117    2.1478301   -3.5489581 
H    -3.0313366   -1.7674257   -6.3766485 
H    -2.7401673   -2.9141438   -7.7371689 
H    -3.8113849   -3.3917133   -6.3798656 
H    -2.4829888   -6.7731309    2.0143474 
H    -3.4770211   -7.2528636    3.4421097 
H    -4.2529368   -6.4521282    2.0326582 
H     7.3004793    3.5756908    2.4893359 
H     6.3372196    3.8569901    3.9801762 
H     7.3813499    5.1686076    3.3190521 
H    -2.9170904    4.2388836   -3.3533474 
H    -3.6011503    4.7477775   -1.7717018 
H    -3.4350657    5.9453959   -3.1101033 
