213
Energy =
C    -3.1402908   -2.2888229   -0.2455313 
C    -3.5305959   -1.2199029   -1.0859797 
C    -2.8359433   -0.9471061   -2.3060100 
H    -4.2831813   -0.5084642   -0.7191696 
Pd   -1.4538949   -0.7812235   -0.5740426 
P     0.2027498    0.5436377   -1.5202218 
P    -0.4980705   -0.5109562    1.5667848 
H    -2.5921798   -3.1209911   -0.7161536 
H    -2.4059789   -1.8051355   -2.8437619 
C    -5.2366553   -3.2851296    3.3719401 
C    -4.8977503   -1.9478131    3.1112602 
C    -4.1950369   -1.6161882    1.9496331 
C    -3.8098047   -2.6133137    1.0283738 
C    -4.1214469   -3.9586797    1.3207936 
C    -4.8445042   -4.2885192    2.4732960 
H    -5.7967499   -3.5441989    4.2763315 
H    -5.1740502   -1.1612891    3.8211652 
H    -3.9117369   -0.5769342    1.7656951 
H    -3.8185920   -4.7463487    0.6219499 
H    -5.1036602   -5.3342686    2.6689416 
C    -3.5014548    2.5658677   -4.7099524 
C    -3.6683286    2.6287838   -3.3156814 
C    -3.4595018    1.4903999   -2.5312028 
C    -3.0929603    0.2580656   -3.1206451 
C    -2.9311786    0.2130076   -4.5214570 
C    -3.1261467    1.3550196   -5.3083367 
H    -3.6588113    3.4579368   -5.3247200 
H    -3.9536741    3.5720529   -2.8374555 
H    -3.5560347    1.5607803   -1.4426903 
H    -2.6446215   -0.7297468   -4.9966126 
H    -2.9783352    1.2973996   -6.3915174 
O     4.2070007    1.8809186    0.7928017 
O     2.1770983    3.5479207    2.3642820 
O     5.4609452    0.1316128    1.6366643 
O     0.9791575    5.4350462    1.7915466 
O    -2.6549694    4.5549660    3.9900712 
O    -1.7264508   -4.9375968    5.4480612 
O     5.4365663   -2.2944376   -2.1130883 
O     0.7845291    1.4516833   -7.4071718 
C     1.9779487    0.8616568    1.1392844 
C     1.2645486    2.0543272    0.6075493 
C     1.3417298   -0.3229782    1.6486085 
C     0.3816700    2.0610257   -0.5198337 
C     3.3668700    0.8861712    1.2275034 
C     1.3991472    3.2743974    1.2662295 
C     4.1285220   -0.1775883    1.7319996 
C     0.6590097    4.4163343    0.9268380 
C    -1.1417636    1.0470729    2.3003758 
C    -0.8769392   -1.8357990    2.7803897 
C     1.8355104   -0.2894556   -1.5799871 
C     0.1365750    0.9968698   -3.2999518 
C     2.1196853   -1.3789277    2.1587665 
C    -0.4104993    3.1906820   -0.8085282 
C     3.5298369   -1.3365641    2.2013591 
C    -0.2924378    4.3948856   -0.0835617 
C    -2.8981986    2.7727990    2.3490951 
C    -0.9142049   -4.2348903    3.2991870 
C    -1.0451757    2.7853474    4.0272341 
C    -1.4857528   -2.5545831    5.0520512 
C     4.1428484   -0.2538164   -2.4041890 
C     0.3718383    0.0228617   -5.5384678 
C     3.0783806   -2.3925731   -1.6840901 
C     0.4095998    2.4971569   -5.2233750 
C    -2.3082043    1.6237967    1.7843463 
C    -0.6960805   -3.1795638    2.3992073 
C    -0.5278548    1.6267475    3.4256603 
C    -1.2579715   -1.5463380    4.0935954 
C     2.9400674    0.4020218   -2.0927341 
C     0.1533763   -0.1110295   -4.1637936 
C     1.8944914   -1.6808442   -1.4337235 
C     0.2562220    2.2775719   -3.8377294 
C    -2.2008206    3.3796570    3.4307500 
C    -1.3988643   -3.8985253    4.6016824 
C     4.2261299   -1.6341184   -2.0559752 
C     0.5497784    1.3467029   -6.0516352 
C     5.4936408    1.5371518    1.3326999 
C     2.1740005    4.9803915    2.4555587 
C    -4.2499852    3.2635869    1.7581065 
C    -0.5319168   -5.6882800    2.9219760 
C    -0.4535443    3.2922274    5.3681170 
C    -1.7424310   -2.0770979    6.5096374 
C     5.1962171    0.5491813   -3.2190093 
C     0.4147222   -1.2419349   -6.4316506 
C     3.0871713   -3.9380831   -1.6204258 
C     0.4093986    3.9699599   -5.7154368 
C    -5.1306321    4.0516233    2.7617166 
C    -5.1073218    2.0392360    1.3350195 
C    -3.9829252    4.1163916    0.4911246 
C     0.5591274   -6.1785682    3.9126245 
C     0.0705808   -5.7520339    1.5027515 
C    -1.7372849   -6.6608786    2.9542859 
C     0.8723470    2.5666899    5.7001507 
C    -0.1556959    4.8152710    5.3967871 
C    -1.4939537    2.9728912    6.4760262 
C    -1.6289796   -3.1653033    7.6055053 
C    -3.1360409   -1.4028410    6.5916836 
C    -0.6547879   -1.0220624    6.8610386 
C     5.8722429    1.6220012   -2.3317393 
C     4.4365578    1.2647306   -4.3775774 
C     6.2860817   -0.3154134   -3.8977502 
C    -0.6270885   -1.1376310   -7.5761308 
C     1.8377323   -1.4427964   -7.0140149 
C     0.0848339   -2.5182405   -5.6196830 
C     1.6448961   -4.4847465   -1.5148878 
C     3.6945321   -4.5206497   -2.9243614 
C     3.8817039   -4.4374181   -0.3884228 
C     1.8596639    4.5185118   -5.7743176 
C    -0.3123533    4.1282813   -7.0778065 
C    -0.3695992    4.8730556   -4.7180927 
C    -2.3202411    5.7615915    3.2846976 
C    -3.1292194   -5.1688374    5.6324656 
C     6.3285282   -1.9774348   -1.0358701 
C     2.0842363    1.8330529   -7.8769723 
H     1.6198722   -2.2655606    2.5576897 
H    -1.1416826    3.1396317   -1.6203679 
H     4.1163428   -2.1680011    2.5989181 
H    -0.9092086    5.2661907   -0.3137000 
H    -2.7614139    1.1594533    0.9025596 
H    -0.3753152   -3.3938337    1.3760027 
H     0.3749645    1.1613313    3.8262706 
H    -1.3744593   -0.5021712    4.3906689 
H     2.8383652    1.4704080   -2.3053190 
H     0.0400112   -1.1077261   -3.7303629 
H     0.9893155   -2.2073800   -1.1179395 
H     0.2484412    3.1396736   -3.1731394 
H     5.6652992    2.1115652    2.2659691 
H     6.2713912    1.7345584    0.5814849 
H     3.0613670    5.3859323    1.9279327 
H     2.1467699    5.2819683    3.5119389 
H    -5.2236054    3.5102479    3.7177721 
H    -6.1408466    4.1633107    2.3301590 
H    -4.7530173    5.0586952    2.9799930 
H    -6.0850639    2.3880875    0.9622395 
H    -4.6483511    1.4516339    0.5232190 
H    -5.2875884    1.3652418    2.1899555 
H    -3.4161424    5.0314137    0.7271390 
H    -3.3948974    3.5436646   -0.2459235 
H    -4.9368457    4.4154835    0.0208976 
H     0.8735673   -7.2038788    3.6467255 
H     1.4480456   -5.5242088    3.8651071 
H     0.1816448   -6.1859818    4.9464683 
H     0.9771564   -5.1293409    1.4152811 
H     0.3629718   -6.7914308    1.2757932 
H    -0.6500143   -5.4338876    0.7278250 
H    -2.5781339   -6.2700696    2.3567242 
H    -1.4364576   -7.6330888    2.5252123 
H    -2.0835943   -6.8457849    3.9800290 
H     1.6325705    2.7387096    4.9175380 
H     1.2660161    2.9523940    6.6558002 
H     0.7414688    1.4785682    5.8212700 
H     0.5242677    5.0384318    6.2374310 
H     0.3291625    5.1503068    4.4665956 
H    -1.0686228    5.4079683    5.5412426 
H    -1.6969115    1.8894725    6.5278123 
H    -2.4420157    3.4991464    6.2767475 
H    -1.1131646    3.2991117    7.4607407 
H    -1.6134376   -2.6622145    8.5884841 
H    -2.4786270   -3.8615882    7.6162488 
H    -0.7021509   -3.7513791    7.5031522 
H    -3.9414678   -2.1176296    6.3480934 
H    -3.2143461   -0.5552376    5.8876661 
H    -3.3159249   -1.0181632    7.6114407 
H     0.3548867   -1.4634626    6.7952446 
H    -0.8077394   -0.6586677    7.8920518 
H    -0.6870835   -0.1450561    6.1966749 
H     6.5250867    2.2695673   -2.9436289 
H     6.5030529    1.1474747   -1.5594895 
H     5.1252524    2.2560422   -1.8239663 
H     3.8856434    0.5303654   -4.9904691 
H     3.7110129    2.0136980   -4.0201482 
H     5.1609129    1.7888463   -5.0257913 
H     6.8487081    0.3235008   -4.6013879 
H     5.8447500   -1.1495465   -4.4671777 
H     7.0102933   -0.7348212   -3.1853181 
H    -0.4379152   -0.2610855   -8.2122226 
H    -1.6492000   -1.0562738   -7.1653449 
H    -0.5871237   -2.0465656   -8.2027126 
H     1.8870713   -2.4032047   -7.5576325 
H     2.1110234   -0.6485188   -7.7209702 
H     2.5894732   -1.4686821   -6.2049841 
H    -0.9170901   -2.4695262   -5.1563119 
H     0.0912401   -3.3875270   -6.2989754 
H     0.8280108   -2.7116080   -4.8253581 
H     1.0279078   -4.1689792   -2.3753484 
H     1.1408720   -4.1602949   -0.5904267 
H     1.6713168   -5.5876149   -1.5036185 
H     3.6450955   -5.6238831   -2.8962010 
H     4.7439233   -4.2188186   -3.0519789 
H     3.1204067   -4.1757216   -3.8032697 
H     3.4855625   -3.9878076    0.5393640 
H     4.9499464   -4.1885622   -0.4714249 
H     3.7966531   -5.5356476   -0.3029500 
H     1.8523805    5.5787931   -6.0851253 
H     2.4963822    3.9640708   -6.4783180 
H     2.3307552    4.4568770   -4.7771185 
H    -1.3431753    3.7382584   -7.0095446 
H    -0.3681223    5.1997812   -7.3384126 
H     0.1845311    3.5998335   -7.9010571 
H    -1.3789014    4.4744356   -4.5184411 
H    -0.4750394    5.8811305   -5.1541680 
H     0.1536219    4.9948773   -3.7537831 
H    -3.0173197    5.9407748    2.4463645 
H    -2.4181293    6.5845166    4.0089898 
H    -1.2868720    5.7257151    2.8998096 
H    -3.6604991   -4.2420199    5.9116785 
H    -3.5846456   -5.5704061    4.7107466 
H    -3.2173028   -5.9075053    6.4432408 
H     6.5819437   -0.9020887   -1.0193514 
H     7.2398468   -2.5703055   -1.2043361 
H     5.8811845   -2.2434266   -0.0607243 
H     2.0981499    2.8996014   -8.1649048 
H     2.8580199    1.6450799   -7.1127870 
H     2.2968484    1.2262454   -8.7726236 
