213
Energy =
C     3.7276488   -1.1542468    0.3124847 
C     3.1227046   -2.4386626    0.1498248 
C     2.4407341   -2.7846699   -1.0390561 
H     3.0596060   -3.1094208    1.0160588 
Pd    1.5405228   -0.9286216   -0.0646510 
P    -0.7412793   -1.3376169   -0.4574891 
P     1.1122873    1.1211542    0.9286533 
H     4.1202054   -0.6609122   -0.5890085 
H     2.6984614   -2.2131840   -1.9443522 
C     5.4494076    0.1939263    4.0247419 
C     4.4195054   -0.7617686    4.0366808 
C     3.8522264   -1.2016040    2.8363406 
C     4.3110893   -0.7069751    1.5928721 
C     5.3453042    0.2538950    1.5997494 
C     5.9046409    0.7054007    2.8008707 
H     5.8940774    0.5358112    4.9648312 
H     4.0518048   -1.1612003    4.9881249 
H     3.0278908   -1.9208752    2.8654978 
H     5.7150487    0.6483125    0.6490351 
H     6.6989993    1.4583477    2.7793113 
C     0.5261264   -6.5259573   -1.9494803 
C     0.8657551   -5.6216542   -2.9667114 
C     1.4735028   -4.4049472   -2.6425486 
C     1.7555607   -4.0607397   -1.3017083 
C     1.3880445   -4.9738130   -0.2866544 
C     0.7826544   -6.1917164   -0.6089649 
H     0.0635386   -7.4869103   -2.1969031 
H     0.6615272   -5.8625978   -4.0149734 
H     1.7453758   -3.7062648   -3.4380512 
H     1.5764797   -4.7354934    0.7634748 
H     0.5121923   -6.8895745    0.1904080 
O    -3.3444170    2.5416464    2.0334394 
O    -3.3122054   -0.4390995    3.3889616 
O    -4.5577860    3.2106665    0.1817683 
O    -2.2356879   -0.9794516    5.3673805 
O    -1.7763652   -3.3864702   -6.0061603 
O    -3.0291992   -5.3409516    3.3760154 
O     5.1033125    5.3989750    1.9457810 
O    -1.5257599    5.5222471   -2.1640365 
C    -2.0831510    0.7198737    0.9339211 
C    -1.3204063    0.3974730    2.1755974 
C    -1.9233480    0.0685236   -0.3345740 
C     0.0848477    0.6284236    2.3561172 
C    -3.0306658    1.7366706    0.9679512 
C    -1.9793923   -0.1452959    3.2769795 
C    -3.7613725    2.1464075   -0.1582588 
C    -1.3291359   -0.4739707    4.4770415 
C    -1.0386470   -2.0654932   -2.1143371 
C    -1.4548580   -2.4830395    0.7859522 
C     2.4913398    2.1845839    1.4896240 
C     0.2104471    2.3999842   -0.0273772 
C    -2.6607383    0.4826369   -1.4564492 
C     0.7313792    0.2703894    3.5560012 
C    -3.5904889    1.5441510   -1.3956417 
C     0.0331218   -0.2799661    4.6502074 
C    -2.2148639   -3.6166546   -3.6167331 
C    -3.4401417   -3.5971486    1.7200183 
C    -0.4477592   -2.0891820   -4.4967117 
C    -1.1703265   -3.9942019    2.6900531 
C     3.4980017    3.8702983    2.9587670 
C    -0.8208187    4.6172920   -0.0527512 
C     4.3415255    3.5440471    0.6324239 
C    -0.2512498    3.4569041   -2.1893954 
C    -1.9700730   -3.0846763   -2.3352386 
C    -2.8408034   -2.6937072    0.8223553 
C    -0.2540701   -1.6110794   -3.1906264 
C    -0.6438186   -3.0845985    1.7589640 
C     2.5482321    2.8562494    2.7118731 
C    -0.2779126    3.5324406    0.6462460 
C     3.4253245    2.4963335    0.4862176 
C     0.2409857    2.3802941   -1.4212502 
C    -1.5096053   -3.0244505   -4.7015005 
C    -2.5573691   -4.3212486    2.5739138 
C     4.3014018    4.2785856    1.8583871 
C    -0.8731551    4.5162343   -1.4785263 
C    -4.5141487    3.2658260    1.6210561 
C    -3.4450002   -1.1807769    4.6166878 
C    -3.2207478   -4.7967042   -3.7166759 
C    -4.9926320   -3.6986792    1.7055273 
C     0.5110858   -1.6704011   -5.6415422 
C    -0.2745746   -4.5727312    3.8149802 
C     3.5758139    4.4215040    4.4097912 
C    -1.1863193    5.9215893    0.6985200 
C     5.3664835    3.8460257   -0.4888574 
C    -0.0062718    3.3953378   -3.7208825 
C    -3.0613640   -5.7162006   -2.4727058 
C    -2.9958644   -5.7100291   -4.9475469 
C    -4.6700147   -4.2437509   -3.7109068 
C    -5.4519530   -4.5955481    0.5270937 
C    -5.5969594   -2.2825866    1.4755578 
C    -5.6060224   -4.2219468    3.0285064 
C     1.6664683   -0.7939378   -5.1050572 
C     1.1478508   -2.9329048   -6.2837025 
C    -0.2199979   -0.8524895   -6.7382804 
C     1.1130475   -3.8893412    3.8218988 
C    -0.0395871   -6.0942609    3.6359408 
C    -0.9259432   -4.3024916    5.1975921 
C     2.3737039    5.3596765    4.6903423 
C     4.9051406    5.1421544    4.7454372 
C     3.4866324    3.2201101    5.3954724 
C    -2.6266251    6.4230205    0.4183907 
C    -1.0515981    5.7355576    2.2281303 
C    -0.1732477    7.0100283    0.2499334 
C     5.1415400    5.2507671   -1.1070505 
C     6.8044231    3.7505103    0.0860791 
C     5.2503540    2.8250785   -1.6458499 
C     1.4919944    3.0373548   -3.9468890 
C    -0.8964768    2.2887729   -4.3395667 
C    -0.2337526    4.7197041   -4.4899839 
C    -2.9408241   -2.7957020   -6.5997663 
C    -3.2573283   -6.5935712    2.7132784 
C     4.4080824    6.6513392    1.8557886 
C    -2.8506192    5.1669376   -2.5877772 
H    -2.5177838   -0.0369445   -2.4082176 
H     1.8130375    0.4032168    3.6417194 
H    -4.1502897    1.8693778   -2.2755364 
H     0.5380685   -0.5455769    5.5817203 
H    -2.5121484   -3.4958073   -1.4833331 
H    -3.4747647   -2.1213550    0.1407191 
H     0.5348776   -0.8817179   -2.9871663 
H     0.4140904   -2.8113902    1.7861928 
H     1.8324315    2.6055053    3.4972776 
H    -0.2193454    3.5581478    1.7361583 
H     3.3917556    1.9277519   -0.4470950 
H     0.6784722    1.5093349   -1.9215123 
H    -4.4311023    4.3135165    1.9460138 
H    -5.4185287    2.7745913    2.0336494 
H    -3.5534354   -2.2578043    4.3805909 
H    -4.3038459   -0.7952734    5.1882932 
H    -2.0222326   -6.0677592   -2.3721855 
H    -3.7205216   -6.5940376   -2.5857003 
H    -3.3436785   -5.2209455   -1.5301814 
H    -3.6102306   -6.6197613   -4.8292628 
H    -3.2795284   -5.2419199   -5.8992127 
H    -1.9392811   -6.0175290   -5.0235518 
H    -4.8533669   -3.6407499   -2.8040950 
H    -4.8725228   -3.6020655   -4.5842459 
H    -5.3964001   -5.0759449   -3.7236114 
H    -6.5542675   -4.6640453    0.5080349 
H    -5.1213774   -4.1717663   -0.4364066 
H    -5.0473316   -5.6185679    0.5998607 
H    -5.3810798   -1.8873445    0.4686112 
H    -6.6950863   -2.3387755    1.5690265 
H    -5.2152390   -1.5546883    2.2095306 
H    -5.2191601   -3.6692648    3.9009958 
H    -6.6995956   -4.0755427    2.9918281 
H    -5.4209775   -5.2898273    3.2036279 
H     2.2470592   -1.3094287   -4.3185438 
H     2.3614503   -0.5652901   -5.9306965 
H     1.3079662    0.1666327   -4.7003450 
H     1.8180168   -2.6304794   -7.1080094 
H     1.7542152   -3.4892509   -5.5475607 
H     0.3786413   -3.6074855   -6.6873998 
H    -0.8784769   -1.4874610   -7.3468581 
H     0.5225553   -0.3988232   -7.4186808 
H    -0.8187336   -0.0384096   -6.2958369 
H     1.6982366   -4.2633841    4.6790393 
H     1.6941635   -4.1152367    2.9097911 
H     1.0271850   -2.7937845    3.9202860 
H     0.7212007   -6.4400349    4.3581825 
H     0.3281655   -6.3222287    2.6199706 
H    -0.9551477   -6.6734331    3.8187982 
H    -0.2753374   -4.6970811    5.9985190 
H    -1.9082849   -4.7916264    5.2756514 
H    -1.0574701   -3.2204413    5.3660745 
H     2.4108964    5.7262911    5.7316695 
H     1.4162651    4.8275769    4.5504363 
H     2.3704993    6.2366013    4.0207838 
H     5.7749946    4.5350632    4.4445637 
H     4.9997056    6.1283438    4.2715271 
H     4.9540278    5.2966163    5.8377668 
H     3.6090324    3.5853121    6.4298292 
H     4.2804212    2.4833982    5.1879292 
H     2.5162310    2.6979678    5.3480977 
H    -3.3610522    5.6063532    0.5138632 
H    -2.7184418    6.8561560   -0.5870279 
H    -2.8899257    7.2095085    1.1475901 
H    -1.3109872    6.6817062    2.7331084 
H    -1.7306086    4.9495029    2.6051218 
H    -0.0214219    5.4759079    2.5261960 
H    -0.2487793    7.1888079   -0.8351371 
H    -0.3788469    7.9602667    0.7753766 
H     0.8604287    6.6994548    0.4865633 
H     5.7669805    5.3608875   -2.0108334 
H     5.4241655    6.0525900   -0.4114098 
H     4.0861759    5.3877079   -1.4033175 
H     7.5419018    3.9687840   -0.7069823 
H     7.0071241    2.7335936    0.4660304 
H     6.9504162    4.4681857    0.9074731 
H     4.2704039    2.8799209   -2.1520557 
H     5.4078856    1.7864139   -1.3044235 
H     6.0265435    3.0440058   -2.3987058 
H     2.1434944    3.8200386   -3.5202739 
H     1.6993429    2.9670710   -5.0289460 
H     1.7790682    2.0753534   -3.4922323 
H    -1.9675198    2.5202753   -4.2055044 
H    -0.6985404    2.2004383   -5.4225164 
H    -0.7087947    1.3059901   -3.8738447 
H    -1.2951976    4.9880540   -4.5845751 
H     0.1637532    4.5965801   -5.5133314 
H     0.2924973    5.5618140   -4.0137288 
H    -2.8585011   -2.9720767   -7.6829986 
H    -3.8688064   -3.2651855   -6.2278075 
H    -2.9802683   -1.7093220   -6.4013729 
H    -4.1914495   -6.5760828    2.1235044 
H    -2.4142108   -6.8473123    2.0453532 
H    -3.3461294   -7.3519032    3.5059490 
H     3.7737564    6.6878075    0.9510682 
H     5.1828390    7.4305747    1.7984847 
H     3.7755561    6.8311526    2.7429595 
H    -2.8288643    4.3363148   -3.3177794 
H    -3.4770539    4.8680881   -1.7284547 
H    -3.2747419    6.0623075   -3.0666654 
