213
Energy =
C     3.3328012   -0.9469654    0.3123585 
C     3.0011776   -2.0157365   -0.5777255 
C     2.5075616   -1.7652618   -1.8772653 
H     2.9570997   -3.0425545   -0.1913911 
Pd    1.2073507   -0.7541660   -0.3022166 
P    -0.9443510   -1.1054676   -1.1086963 
P     0.6585519    1.1091136    0.9852515 
H     3.7441947   -0.0267676   -0.1231374 
H     2.6735201   -0.7594282   -2.2965181 
C     4.2654648   -1.5480277    4.4746725 
C     3.4508039   -2.4726807    3.8001691 
C     3.1359359   -2.2810124    2.4519427 
C     3.6357615   -1.1635889    1.7401038 
C     4.4456448   -0.2362279    2.4335356 
C     4.7604862   -0.4319675    3.7846473 
H     4.5141986   -1.6999923    5.5300539 
H     3.0563709   -3.3450139    4.3315613 
H     2.4783834   -2.9990077    1.9482587 
H     4.8359595    0.6381253    1.9012973 
H     5.4046721    0.2867292    4.3005869 
C     1.4515250   -4.7013369   -4.8320623 
C     0.9653039   -3.3880807   -4.9249268 
C     1.3101771   -2.4438261   -3.9545651 
C     2.1355997   -2.7945942   -2.8619164 
C     2.6096457   -4.1226112   -2.7748075 
C     2.2741612   -5.0636386   -3.7544582 
H     1.1986621   -5.4359922   -5.6033931 
H     0.3149147   -3.0992956   -5.7570190 
H     0.9214609   -1.4239969   -4.0273269 
H     3.2772439   -4.4124999   -1.9578170 
H     2.6693004   -6.0823969   -3.6841603 
O    -3.6716010    1.4289917    2.6716637 
O    -4.3143625    2.2112203   -0.4140539 
O    -4.5268180   -0.4998346    3.6268380 
O    -3.8391656    4.2533242   -1.3844966 
O    -2.7388045    2.7131144   -5.3606362 
O    -1.6007846   -6.8624998   -2.6573044 
O    -0.9356339    0.6219369    6.7239896 
O     5.4916842    4.6812370    1.1743509 
C    -2.4298660    0.3314384    0.8300242 
C    -1.9968046    1.6268448    0.2315665 
C    -2.1562202   -0.9617305    0.2716769 
C    -0.6567740    2.1325516    0.1967339 
C    -3.2411921    0.3393576    1.9614877 
C    -2.9676825    2.4574499   -0.3182909 
C    -3.7682237   -0.8271851    2.5378122 
C    -2.6769638    3.6958291   -0.9103244 
C    -1.5199303    0.0151929   -2.4257299 
C    -1.1415683   -2.8310891   -1.6794852 
C     0.0572432    0.9318026    2.6973088 
C     2.1327741    2.1955103    1.0787061 
C    -2.7101088   -2.1206485    0.8469771 
C    -0.3734928    3.3733547   -0.4013844 
C    -3.5318740   -2.0789053    1.9927265 
C    -1.3789648    4.1780228   -0.9825864 
C    -0.9138519    1.6435053   -4.1647090 
C    -0.7362447   -5.1917361   -1.1173788 
C    -3.2964735    0.9676028   -3.8142438 
C    -2.1530438   -4.5641426   -3.0779812 
C    -0.7942908    2.0166297    4.7301383 
C     3.9953205    3.2575206   -0.1366714 
C    -0.4294338   -0.4587618    4.6450638 
C     3.8157734    3.4460281    2.3462316 
C    -0.5665875    0.7732998   -3.1137228 
C    -0.5271763   -3.8186064   -0.8974211 
C    -2.8740755    0.1033409   -2.7921148 
C    -1.9718916   -3.2124096   -2.7424890 
C    -0.3841622    2.0703117    3.3856981 
C     2.8284810    2.4729650   -0.1093884 
C    -0.0111485   -0.3263819    3.3108630 
C     2.6623213    2.6431488    2.2964739 
C    -2.3026458    1.7866257   -4.4373882 
C    -1.4704651   -5.5402125   -2.2879416 
C    -0.7068164    0.7438536    5.3678487 
C     4.4194289    3.8178126    1.1081794 
C    -4.2801548    0.8959937    3.8636465 
C    -4.8895773    3.4749138   -0.7779335 
C     0.2485210    2.3424874   -4.9234067 
C    -0.2196845   -6.1630894   -0.0160448 
C    -4.7602494    0.9089041   -4.3213943 
C    -3.1365305   -4.9543371   -4.2094301 
C    -1.3065126    3.3368417    5.3740586 
C     4.7332152    3.4243360   -1.4930090 
C    -0.6203805   -1.8646083    5.2680794 
C     4.3946238    3.8695291    3.7201837 
C     1.3989276    1.3177731   -5.1379338 
C     0.7954758    3.5073504   -4.0603492 
C    -0.1171729    2.8564761   -6.3382989 
C    -0.6095967   -5.5703513    1.3707244 
C     1.3242540   -6.2684851   -0.0775448 
C    -0.8419254   -7.5812494   -0.0507827 
C    -5.4613337    2.2898979   -4.4013327 
C    -4.7269288    0.2824910   -5.7420141 
C    -5.6285205    0.0127651   -3.4070992 
C    -4.2766598   -5.8182878   -3.6069895 
C    -2.4361292   -5.7334837   -5.3517135 
C    -3.7820555   -3.7014228   -4.8460302 
C    -2.1471548    4.1245092    4.3272989 
C    -0.1017742    4.2309879    5.7674188 
C    -2.2264323    3.1313100    6.6035853 
C     6.2719179    3.5137950   -1.3304674 
C     4.4760021    2.1866364   -2.3972158 
C     4.1831288    4.6639137   -2.2461601 
C    -2.0556037   -1.9873408    5.8457702 
C    -0.4603548   -2.9661890    4.1934723 
C     0.4208143   -2.1443915    6.3822004 
C     3.6685061    3.1443173    4.8793881 
C     5.8975404    3.4949062    3.8143001 
C     4.2093552    5.3920042    3.9440445 
C    -2.8174138    4.0622932   -4.8708031 
C    -0.4396902   -7.4706888   -3.2361075 
C     0.1631387    1.0021450    7.5657676 
C     5.3062239    6.0408320    0.7577014 
H    -2.5021884   -3.0936103    0.3962566 
H     0.6537458    3.7472846   -0.3991326 
H    -3.9593524   -2.9854759    2.4268976 
H    -1.1472257    5.1401623   -1.4451096 
H     0.4801131    0.6844749   -2.8059785 
H     0.0916547   -3.4980121   -0.0509718 
H    -3.6030006   -0.5049717   -2.2531298 
H    -2.4719615   -2.4371077   -3.3239136 
H    -0.4045271    3.0262010    2.8558076 
H     2.4529443    2.0428902   -1.0427691 
H     0.2626888   -1.2059900    2.7237852 
H     2.1683126    2.3538754    3.2237896 
H    -5.2338159    1.4133719    4.0526439 
H    -3.5744519    1.0044148    4.7108457 
H    -5.2485978    3.9940923    0.1339473 
H    -5.6974034    3.3157000   -1.5063144 
H     1.8357353    0.9546168   -4.1929564 
H     2.2151662    1.7958924   -5.7059369 
H     1.0476614    0.4434667   -5.7129134 
H     1.6674284    3.9742719   -4.5518296 
H     0.0323745    4.2873365   -3.9002116 
H     1.1084785    3.1450004   -3.0658087 
H    -0.6257842    2.0772137   -6.9287831 
H    -0.7599975    3.7466066   -6.3255125 
H     0.8154207    3.1322667   -6.8616037 
H    -0.2915583   -6.2618619    2.1702388 
H    -0.1331289   -4.5971232    1.5729762 
H    -1.7029532   -5.4369484    1.4490097 
H     1.7931988   -5.2760433    0.0450543 
H     1.6961791   -6.9248497    0.7292650 
H     1.6660494   -6.6816438   -1.0414927 
H    -0.4602608   -8.2033802   -0.8715792 
H    -0.5849418   -8.0961233    0.8916954 
H    -1.9397515   -7.5389272   -0.1327195 
H    -6.5472709    2.1403100   -4.5330756 
H    -5.3084340    2.8720084   -3.4783326 
H    -5.1009062    2.8843014   -5.2513196 
H    -5.7525459    0.2031923   -6.1455003 
H    -4.1304713    0.9072886   -6.4270980 
H    -4.2883630   -0.7301187   -5.7132085 
H    -5.6610632    0.3991395   -2.3726171 
H    -5.2683702   -1.0297122   -3.3773157 
H    -6.6601803   -0.0109852   -3.7970149 
H    -4.9991419   -6.0912802   -4.3971489 
H    -3.8797235   -6.7433996   -3.1616962 
H    -4.8184193   -5.2541743   -2.8271174 
H    -3.1323661   -5.8476047   -6.2013803 
H    -2.1361794   -6.7409643   -5.0329577 
H    -1.5450515   -5.1907922   -5.7124509 
H    -4.4938007   -4.0183424   -5.6271143 
H    -3.0326976   -3.0450354   -5.3238238 
H    -4.3467761   -3.1053085   -4.1084783 
H    -2.5894506    5.0118028    4.8118963 
H    -2.9593195    3.5075910    3.9104582 
H    -1.5390923    4.4891384    3.4825338 
H     0.5554450    3.7398742    6.5042108 
H     0.5082144    4.4752914    4.8801491 
H    -0.4590248    5.1789511    6.2077887 
H    -2.6934030    4.0983676    6.8596949 
H    -1.6909079    2.7771499    7.4942602 
H    -3.0332784    2.4099995    6.3912656 
H     6.6518412    2.6575362   -0.7464385 
H     6.6053248    4.4307756   -0.8287539 
H     6.7411029    3.4817180   -2.3293103 
H     5.0840017    2.2754833   -3.3133339 
H     4.7646316    1.2491767   -1.8891247 
H     3.4253034    2.1022650   -2.7205513 
H     4.3533939    5.5987937   -1.6917050 
H     4.6737208    4.7595238   -3.2315344 
H     3.0969038    4.5635622   -2.4120214 
H    -2.2042793   -3.0013595    6.2583472 
H    -2.8114528   -1.8244896    5.0588579 
H    -2.2251284   -1.2562874    6.6504458 
H     0.5643017   -3.0033247    3.7867503 
H    -1.1640496   -2.8251440    3.3555208 
H    -0.6716442   -3.9490677    4.6487675 
H     0.2247239   -1.5457005    7.2828174 
H     1.4446586   -1.9327902    6.0277974 
H     0.3718694   -3.2083410    6.6760132 
H     4.1489879    3.4242600    5.8325872 
H     3.7260873    2.0467561    4.7809562 
H     2.6057843    3.4285066    4.9512317 
H     6.4964580    4.0264076    3.0616247 
H     6.2812138    3.7503221    4.8181040 
H     6.0373234    2.4102881    3.6628090 
H     4.8023399    5.9884198    3.2369211 
H     4.5370038    5.6619412    4.9639152 
H     3.1471543    5.6766502    3.8398662 
H    -3.3602674    4.1078306   -3.9111156 
H    -1.8111017    4.4984727   -4.7342784 
H    -3.3586397    4.6385751   -5.6361228 
H     0.4498774   -7.3460755   -2.5944171 
H    -0.6726129   -8.5405547   -3.3444726 
H    -0.2224149   -7.0346548   -4.2269276 
H    -0.0693566    0.6182056    8.5705419 
H     0.2752005    2.1004006    7.6144583 
H     1.1096098    0.5598684    7.2058060 
H     4.2460810    6.3407685    0.8311138 
H     5.9141680    6.6697928    1.4281781 
H     5.6609336    6.1867332   -0.2787089 
