213
Energy =
C    -3.0613720   -1.3135886    0.9693512 
C    -3.5452588   -0.6749547   -0.2152909 
C    -3.0414241   -1.0122789   -1.4913954 
H    -4.1836964    0.2134732   -0.1235027 
Pd   -1.3623221   -0.3595082   -0.0945689 
P    -0.0251465    0.9377734   -1.4767655 
P     0.3278995   -0.8736568    1.4251193 
H    -2.7695884   -2.3697954    0.8995667 
H    -2.5088477   -1.9726049   -1.5870045 
C    -4.0240868    0.0332413    4.9465337 
C    -3.6701164   -1.3029657    4.7097567 
C    -3.3507102   -1.7335038    3.4153560 
C    -3.3895698   -0.8344524    2.3258093 
C    -3.7404510    0.5135128    2.5813990 
C    -4.0581332    0.9400190    3.8740106 
H    -4.2754290    0.3671472    5.9585230 
H    -3.6517715   -2.0176027    5.5384314 
H    -3.0753959   -2.7789696    3.2384554 
H    -3.7470349    1.2405207    1.7610372 
H    -4.3295446    1.9861803    4.0495017 
C    -4.2439102    0.6765778   -5.2572592 
C    -3.0333790   -0.0240614   -5.1423178 
C    -2.6522696   -0.5664986   -3.9123505 
C    -3.4635782   -0.4069680   -2.7653090 
C    -4.6763371    0.3063065   -2.8938377 
C    -5.0631430    0.8370010   -4.1292439 
H    -4.5524579    1.0853733   -6.2249218 
H    -2.3836800   -0.1478979   -6.0149730 
H    -1.7024114   -1.1027437   -3.8289757 
H    -5.3408701    0.4153122   -2.0316359 
H    -6.0169777    1.3675803   -4.2151549 
O     4.7411036    0.9115871   -0.8682271 
O     3.8301199    2.1597241    1.9584339 
O     5.7336693   -1.1626110   -1.1084090 
O     3.2168556    4.3840334    2.1593278 
O     1.3705656    2.4867945    6.2567968 
O    -0.9058499   -6.3111449    3.6739246 
O     2.9519351   -1.7688838   -5.8565014 
O    -3.3985320    4.8808760   -4.4886590 
C     2.6331999    0.1278759    0.1662666 
C     2.1117979    1.5191399    0.2925141 
C     1.9696631   -1.0636708    0.6080288 
C     1.0269394    2.0657006   -0.4707818 
C     3.9016495   -0.0552636   -0.3745847 
C     2.7601228    2.4128949    1.1411785 
C     4.5041509   -1.3139360   -0.5221912 
C     2.3967272    3.7637338    1.2589890 
C     0.7060720    0.2253739    2.8299208 
C    -0.0484117   -2.5152292    2.1494912 
C     1.0725239    0.0618711   -2.6354936 
C    -1.0517809    2.0815817   -2.4689669 
C     2.5802167   -2.3212904    0.4571475 
C     0.6883110    3.4275432   -0.3589856 
C     3.8600851   -2.4749910   -0.1214618 
C     1.3686060    4.3088245    0.5069050 
C     2.1271966    0.7053838    4.7753832 
C    -0.7757279   -4.8324745    1.7297402 
C     0.2074378    2.1983147    4.1803557 
C    -0.4386037   -3.9992385    4.0589003 
C     1.5191391   -1.9902812   -3.9098844 
C    -1.4717789    3.4495177   -4.4528629 
C     2.8299103    0.0903439   -4.3373752 
C    -2.9025130    3.7008744   -2.4201651 
C     1.8136855   -0.0625387    3.6392877 
C    -0.4208628   -3.5497988    1.2763568 
C    -0.0592899    1.3735919    3.0751357 
C    -0.1098412   -2.7374110    3.5317158 
C     0.8308571   -1.2909564   -2.8986697 
C    -0.7080093    2.4951894   -3.7630557 
C     2.1237665    0.7186622   -3.3006918 
C    -2.1451352    2.6758002   -1.8245964 
C     1.2367487    1.7772877    5.0798586 
C    -0.6823436   -5.0611664    3.1373775 
C     2.4179616   -1.2282495   -4.7043625 
C    -2.6110833    3.9939873   -3.7840678 
C     6.0050423    0.2493606   -1.0470830 
C     3.9706862    3.3316475    2.7839212 
C     3.4074620    0.3158932    5.5686261 
C    -1.2553080   -5.8697001    0.6776742 
C    -0.5645855    3.5288934    4.3661637 
C    -0.5539639   -4.1815164    5.5938165 
C     1.2664842   -3.5200905   -4.0065774 
C    -1.0128818    3.9380479   -5.8492165 
C     4.0536180    0.7788315   -4.9891752 
C    -3.9073647    4.4534610   -1.4998332 
C     4.5262717   -0.0923796    4.5662844 
C     3.1141862   -0.9165097    6.4634591 
C     3.9956968    1.4595626    6.4323617 
C    -1.9420295   -5.1432944   -0.5138584 
C    -2.3163751   -6.8509169    1.2373113 
C    -0.0358194   -6.6402854    0.1077451 
C    -1.4935182    3.4841070    5.6066043 
C     0.4433820    4.7008103    4.5051509 
C    -1.4494544    3.8256363    3.1320903 
C    -1.9316365   -4.7937657    5.9614325 
C    -0.4451828   -2.8223769    6.3270290 
C     0.5881542   -5.0827806    6.1284739 
C     1.5293342   -4.1192244   -2.5968256 
C     2.1931769   -4.2980934   -4.9714963 
C    -0.2090057   -3.7858445   -4.3996280 
C    -0.7296440    5.4625579   -5.7814370 
C     0.2961843    3.2365793   -6.2838780 
C    -2.0698905    3.6481492   -6.9446388 
C     4.3809952    2.1108614   -4.2744237 
C     5.2788052   -0.1634620   -4.8411991 
C     3.8246391    1.1018156   -6.4877800 
C    -5.1362329    3.5580790   -1.2047963 
C    -3.1917775    4.7543306   -0.1494046 
C    -4.3798571    5.8283255   -2.0347622 
C     0.8307042    1.8449066    7.4216116 
C     0.1326191   -7.2940164    3.5616199 
C     2.0511795   -1.7508693   -6.9735022 
C    -4.6794535    4.3896945   -4.9012352 
H     2.0639685   -3.2143217    0.8191189 
H    -0.1309063    3.8264016   -0.9613416 
H     4.3268033   -3.4567498   -0.2305129 
H     1.0987185    5.3646721    0.5808560 
H     2.4480372   -0.9121499    3.3734469 
H    -0.4522133   -3.3363240    0.2036878 
H    -0.8666201    1.6177587    2.3810321 
H     0.0958728   -1.9081200    4.2082873 
H     0.0893532   -1.8128618   -2.2831358 
H     0.1673985    2.0538062   -4.2398852 
H     2.3781139    1.7377156   -3.0011396 
H    -2.3740434    2.3642348   -0.7988331 
H     6.6569541    0.4611121   -0.1753677 
H     6.4614688    0.5785160   -1.9923940 
H     5.0325662    3.6187591    2.8372337 
H     3.5465263    3.1229381    3.7858783 
H     4.2882436   -1.0193401    4.0183502 
H     5.4606111   -0.2783739    5.1231412 
H     4.7109254    0.6966637    3.8197549 
H     4.0240277   -1.2109512    7.0163419 
H     2.3189183   -0.7132714    7.1998947 
H     2.7945819   -1.7768076    5.8494130 
H     4.1114897    2.3894599    5.8507592 
H     3.3886067    1.6947029    7.3164628 
H     4.9952343    1.1539393    6.7879908 
H    -2.3621217   -5.8962070   -1.2019800 
H    -2.7714425   -4.5006585   -0.1685385 
H    -1.2432617   -4.5281897   -1.1053653 
H    -3.1519985   -6.2991026    1.7015100 
H    -2.7231436   -7.4518549    0.4052146 
H    -1.9174287   -7.5431228    1.9892349 
H     0.4910473   -7.2168509    0.8831686 
H    -0.3621714   -7.3456638   -0.6776075 
H     0.6886007   -5.9380986   -0.3391782 
H    -0.9213838    3.5012483    6.5450505 
H    -2.1538818    4.3698119    5.6067288 
H    -2.1293374    2.5817599    5.5911215 
H    -0.1065671    5.6541694    4.6011002 
H     1.0800137    4.5754281    5.3937308 
H     1.0924717    4.7686037    3.6157796 
H    -2.2516337    3.0788102    3.0075068 
H    -0.8562788    3.8598194    2.2024283 
H    -1.9308377    4.8103440    3.2605993 
H    -2.0222297   -4.8714121    7.0595872 
H    -2.7518991   -4.1507729    5.5973120 
H    -2.0594300   -5.7945492    5.5252603 
H    -1.2111295   -2.1054100    5.9851004 
H     0.5455515   -2.3557994    6.1990817 
H    -0.5944255   -2.9866456    7.4080215 
H     0.5007625   -6.1171208    5.7683357 
H     0.5542604   -5.1113300    7.2322641 
H     1.5743252   -4.6867524    5.8272263 
H     1.3158245   -5.2021184   -2.6079639 
H     0.9024461   -3.6585448   -1.8160395 
H     2.5822374   -3.9726990   -2.3037846 
H     1.9713232   -4.1058175   -6.0309952 
H     3.2547658   -4.0670022   -4.7932172 
H     2.0391860   -5.3782718   -4.7990616 
H    -0.3978627   -4.8723091   -4.4611005 
H    -0.4501209   -3.3409841   -5.3809915 
H    -0.9119399   -3.3667452   -3.6579982 
H     0.0596041    5.6765572   -5.0390340 
H    -1.6359099    6.0219745   -5.5035411 
H    -0.3819121    5.8244190   -6.7657647 
H     0.6079862    3.6311014   -7.2658969 
H     1.1224138    3.4220300   -5.5754179 
H     0.1682710    2.1438531   -6.3881741 
H    -2.9639244    4.2748747   -6.8230456 
H    -1.6425978    3.8687337   -7.9389837 
H    -2.3717296    2.5862905   -6.9307529 
H     4.5459486    1.9714667   -3.1924358 
H     3.5784961    2.8585108   -4.4081260 
H     5.3009841    2.5367484   -4.7103595 
H     6.1910081    0.3426909   -5.2050695 
H     5.1378946   -1.0878756   -5.4217522 
H     5.4299802   -0.4454163   -3.7850538 
H     2.8904104    1.6715580   -6.6328260 
H     3.7872330    0.1897552   -7.0999155 
H     4.6599384    1.7197202   -6.8626536 
H    -5.8319555    4.0749799   -0.5200604 
H    -4.8293169    2.6099228   -0.7283751 
H    -5.6866480    3.3056539   -2.1269195 
H    -2.2808131    5.3568434   -0.3115583 
H    -3.8687668    5.3279045    0.5072501 
H    -2.9025906    3.8422495    0.3976275 
H    -3.5306088    6.4456303   -2.3687610 
H    -4.8938503    6.3613735   -1.2155862 
H    -5.0940032    5.7495458   -2.8656364 
H     1.4725402    1.0111902    7.7593642 
H     0.7928980    2.6131962    8.2085657 
H    -0.1860955    1.4590613    7.2261027 
H     1.1274900   -6.8189069    3.4994813 
H     0.0789205   -7.9208308    4.4662061 
H    -0.0245787   -7.9379494    2.6773593 
H     1.7805440   -0.7134002   -7.2448002 
H     1.1251686   -2.3148432   -6.7558622 
H     2.5840605   -2.2264187   -7.8103318 
H    -5.2077084    5.2440154   -5.3502278 
H    -4.5686483    3.5850987   -5.6494209 
H    -5.2619405    3.9995565   -4.0482066 
