213
Energy =
C     3.6392785   -0.7981705   -0.0137003 
C     3.1908615   -2.0538628   -0.5389229 
C     2.6343170   -2.1386160   -1.8364982 
H     3.1433783   -2.9336468    0.1180137 
Pd    1.4768349   -0.7132239   -0.4583800 
P    -0.7979403   -1.2457010   -0.7588425 
P     0.9111426    1.1037141    0.8728518 
H     4.0643576   -0.0769332   -0.7272807 
H     2.9091596   -1.3434406   -2.5483637 
C     4.8358035   -0.2617278    4.0941174 
C     5.5033503    0.4159737    3.0641764 
C     5.1179352    0.2351133    1.7297486 
C     4.0565412   -0.6320102    1.3958585 
C     3.3853192   -1.2996143    2.4462596 
C     3.7717920   -1.1226484    3.7783724 
H     5.1370749   -0.1160808    5.1362609 
H     6.3304286    1.0918435    3.3005841 
H     5.6423995    0.7738235    0.9341996 
H     2.5222149   -1.9327296    2.2150462 
H     3.2356912   -1.6522231    4.5737960 
C     1.4633374   -5.8782976   -3.6032004 
C     1.0068684   -5.5456487   -2.3181190 
C     1.3566345   -4.3190565   -1.7467296 
C     2.1614001   -3.3962214   -2.4477072 
C     2.5702531   -3.7201742   -3.7600411 
C     2.2396371   -4.9587225   -4.3241873 
H     1.2052630   -6.8461471   -4.0449977 
H     0.3710824   -6.2409210   -1.7605039 
H     0.9765434   -4.0538533   -0.7571571 
H     3.1798823   -3.0080380   -4.3274483 
H     2.5911356   -5.2074688   -5.3309867 
O    -3.5776814    2.8811648    1.1885428 
O    -3.9885406    0.3158544    2.7134124 
O    -4.5641566    3.4174068   -0.8307797 
O    -3.3116275   -0.3429416    4.8183916 
O    -2.0613209   -4.4360023   -5.6925713 
O    -2.3895710   -4.5411952    4.0047920 
O     5.1650678    4.7569373    3.0008188 
O    -1.0513885    5.6710144   -2.4602798 
C    -2.2695328    0.9357460    0.3922946 
C    -1.7288145    0.6539172    1.7495731 
C    -2.0024023    0.1588330   -0.7883955 
C    -0.3421421    0.6102478    2.1055153 
C    -3.1722272    1.9838316    0.2318995 
C    -2.6167572    0.3505372    2.7794742 
C    -3.7654164    2.3151324   -0.9948034 
C    -2.2048523   -0.0676842    4.0529264 
C    -1.2107323   -2.2332531   -2.2488461 
C    -1.3132260   -2.2790019    0.6716621 
C     2.2370489    2.0721891    1.7020891 
C     0.2134264    2.4741181   -0.1261911 
C    -2.6098550    0.5017887   -2.0111508 
C     0.0640301    0.1224454    3.3642812 
C    -3.4943988    1.5929506   -2.1465219 
C    -0.8626792   -0.2376695    4.3649164 
C    -2.4609370   -4.0531760   -3.3293573 
C    -0.6883659   -3.8896713    2.4197203 
C    -1.0247481   -2.5209339   -4.6782281 
C    -3.0766120   -3.2357631    2.0878141 
C     3.1785069    3.4427344    3.5085963 
C    -0.5517079    4.7990327   -0.2428980 
C     4.1055260    3.5798104    1.1970772 
C     0.0647633    3.5539013   -2.3160219 
C    -2.0898401   -3.3182361   -2.1855591 
C    -0.3499854   -3.0431413    1.3484376 
C    -0.6953238   -1.8367710   -3.4974184 
C    -2.6676624   -2.4143601    1.0209184 
C     2.2421823    2.4996122    3.0296229 
C    -0.2233866    3.6494514    0.4971827 
C     3.1549661    2.6364233    0.7979596 
C     0.4069808    2.4553990   -1.5131884 
C    -1.8392827   -3.6896725   -4.5538469 
C    -2.0468480   -3.8678009    2.8469046 
C     4.1592635    3.9047408    2.5891932 
C    -0.5290899    4.6730704   -1.6636037 
C    -4.6888987    3.5712010    0.5939715 
C    -4.4111188    0.2249335    4.0818808 
C    -3.5537955   -5.1408136   -3.1284782 
C     0.3548217   -4.8840112    2.9964966 
C    -0.6245222   -1.9480656   -6.0614004 
C    -4.5786523   -3.5994617    2.2456943 
C     3.0007281    3.9148034    4.9799774 
C    -0.7815907    6.1163385    0.5512617 
C     4.9604418    4.3093182    0.1314689 
C     0.3866135    3.5406312   -3.8290391 
C    -4.2079404   -5.6862904   -4.4217177 
C    -4.7157066   -4.5048683   -2.3125932 
C    -2.9592696   -6.3194317   -2.3150753 
C     0.7626092   -4.5562777    4.4544213 
C     1.6504101   -4.8887628    2.1520210 
C    -0.2342495   -6.3192336    2.9259008 
C     0.2574564   -2.9114968   -6.8938039 
C    -1.9273902   -1.6299360   -6.8446882 
C     0.1598261   -0.6277386   -5.9075996 
C    -5.4652410   -2.7165873    1.3354681 
C    -5.1509678   -3.4886115    3.6803208 
C    -4.7090977   -5.0798858    1.7895646 
C     1.4837013    4.1107644    5.2708683 
C     3.6652211    5.2755179    5.3081573 
C     3.5347796    2.8204803    5.9397796 
C     0.3469082    6.2231373    1.6200049 
C    -0.6862038    7.4067831   -0.2987955 
C    -2.1459620    6.0826948    1.2813211 
C     4.6327508    5.8254986    0.1984187 
C     6.4814756    4.0948457    0.3332398 
C     4.6118868    3.8196181   -1.2948192 
C     1.1398176    4.8371814   -4.2287477 
C     1.3208084    2.3570402   -4.1733540 
C    -0.9074926    3.3929473   -4.6669463 
C    -1.3098250   -5.6537562   -5.7834075 
C    -2.3907075   -3.7140736    5.1859087 
C     6.2600942    4.1406797    3.6881500 
C    -2.4842495    5.7034690   -2.5033667 
H    -2.4083639   -0.1081306   -2.8956543 
H     1.1313841    0.0218633    3.5792490 
H    -3.9536299    1.8425776   -3.1057132 
H    -0.5408636   -0.6162240    5.3377453 
H    -2.5082763   -3.6006403   -1.2170470 
H     0.6924759   -2.9633239    1.0282308 
H    -0.0294525   -0.9704840   -3.5360912 
H    -3.4133441   -1.8662749    0.4410978 
H     1.4755081    2.1334313    3.7124120 
H    -0.2641045    3.6820134    1.5899462 
H     3.0835584    2.3538544   -0.2551587 
H     0.8337388    1.5541684   -1.9634960 
H    -4.6423243    4.6373808    0.8561972 
H    -5.6352918    3.1021314    0.9329114 
H    -5.2851708   -0.4378943    4.1539762 
H    -4.6257526    1.2412601    4.4707073 
H    -4.5367442   -4.8722462   -5.0866521 
H    -5.0948012   -6.2784365   -4.1345814 
H    -3.5485522   -6.3537432   -4.9932926 
H    -5.5103279   -5.2540460   -2.1514773 
H    -4.3932349   -4.1514081   -1.3211341 
H    -5.1518938   -3.6484464   -2.8555458 
H    -2.1354682   -6.8076533   -2.8644405 
H    -2.5611122   -5.9775161   -1.3429634 
H    -3.7361651   -7.0796280   -2.1178944 
H     1.6373775   -5.1663210    4.7413340 
H     1.0396360   -3.4916654    4.5603134 
H    -0.0437309   -4.7870140    5.1646897 
H     2.1898493   -3.9280203    2.2039918 
H     2.3316073   -5.6629347    2.5435833 
H     1.4545022   -5.1258051    1.0928394 
H    -0.4829129   -6.5827015    1.8823599 
H     0.5109405   -7.0466272    3.2944231 
H    -1.1440391   -6.4084946    3.5376702 
H    -0.3114834   -3.7824775   -7.2460522 
H     0.6383568   -2.3815611   -7.7847684 
H     1.1235650   -3.2605903   -6.3073044 
H    -1.6769716   -1.1878760   -7.8258865 
H    -2.5198237   -2.5422679   -7.0136771 
H    -2.5470883   -0.9030908   -6.2893525 
H     1.1125700   -0.7699966   -5.3662987 
H    -0.4306475    0.1414751   -5.3818198 
H     0.4027474   -0.2285222   -6.9071227 
H    -6.5216287   -3.0045459    1.4702572 
H    -5.3627043   -1.6462981    1.5865466 
H    -5.2300343   -2.8433619    0.2656485 
H    -6.2473145   -3.6117152    3.6399757 
H    -4.9379704   -2.5053236    4.1294019 
H    -4.7527753   -4.2707332    4.3409885 
H    -5.7659249   -5.3997444    1.8327750 
H    -4.1179950   -5.7397106    2.4463478 
H    -4.3527620   -5.2074645    0.7529497 
H     1.3584129    4.5094012    6.2921431 
H     0.9069939    3.1721034    5.2187306 
H     1.0365262    4.8311063    4.5640393 
H     4.7600187    5.2209842    5.3742780 
H     3.4049870    6.0413140    4.5593783 
H     3.2966378    5.6150052    6.2921533 
H     3.3680755    3.1174307    6.9907283 
H     4.6163271    2.6513536    5.8009195 
H     3.0224939    1.8579805    5.7646565 
H     1.3430340    6.1847771    1.1467327 
H     0.3003541    5.4179422    2.3707263 
H     0.2547928    7.1825422    2.1583359 
H    -0.6543909    8.2725151    0.3861721 
H     0.2292967    7.4201268   -0.9124457 
H    -1.5469123    7.5488072   -0.9673019 
H    -2.2490869    5.1742954    1.8992664 
H    -2.2515114    6.9668231    1.9348742 
H    -2.9779334    6.1026989    0.5557747 
H     5.2202663    6.3719052   -0.5610794 
H     4.8727791    6.2383379    1.1904327 
H     3.5614419    5.9973249   -0.0076915 
H     6.7257829    3.0212272    0.4238888 
H     6.8513795    4.6208133    1.2239907 
H     7.0305126    4.4925161   -0.5385982 
H     4.8520779    2.7496973   -1.4372850 
H     5.2064965    4.3914645   -2.0274486 
H     3.5456882    3.9734581   -1.5376812 
H     1.4136252    4.7918524   -5.2980479 
H     2.0708226    4.9376633   -3.6425313 
H     0.5232131    5.7314435   -4.0606618 
H     0.8523160    1.3798472   -3.9733482 
H     1.5679685    2.3870799   -5.2481140 
H     2.2669148    2.4106951   -3.6051125 
H    -1.4753185    2.4989898   -4.3537855 
H    -0.6557386    3.2845867   -5.7372644 
H    -1.5562977    4.2751878   -4.5620133 
H    -0.2348754   -5.4421243   -5.9165387 
H    -1.4359996   -6.2758539   -4.8793537 
H    -1.6965975   -6.1919251   -6.6617783 
H    -2.7657202   -4.3477673    6.0033903 
H    -1.3712476   -3.3666719    5.4253670 
H    -3.0402462   -2.8334515    5.0619894 
H     6.9246349    4.9574102    4.0074028 
H     6.8139677    3.4576868    3.0183087 
H     5.9197272    3.5744800    4.5732723 
H    -2.8880921    4.7626662   -2.9202785 
H    -2.9199178    5.8527765   -1.4995697 
H    -2.7549117    6.5473925   -3.1552049 
