213
Energy =
C     3.6617360   -1.1662456    0.2682280 
C     3.0609079   -2.4545560    0.1201984 
C     2.3694176   -2.8095280   -1.0605011 
H     3.0065403   -3.1189350    0.9920624 
Pd    1.4748200   -0.9475342   -0.0839130 
P    -0.8037993   -1.3554928   -0.4621823 
P     1.0458350    1.0987638    0.9114363 
H     4.0475746   -0.6781749   -0.6389955 
H     2.6181464   -2.2424899   -1.9709380 
C     5.3452506    0.2656726    3.9665546 
C     4.3162565   -0.6902523    3.9889580 
C     3.7713039   -1.1663692    2.7919743 
C     4.2447959   -0.7020231    1.5425222 
C     5.2844936    0.2524497    1.5369669 
C     5.8283960    0.7298750    2.7348308 
H     5.7664286    0.6443932    4.9033446 
H     3.9303428   -1.0605312    4.9450371 
H     2.9454044   -1.8836717    2.8276904 
H     5.6651116    0.6250814    0.5808117 
H     6.6331635    1.4698285    2.7049421 
C     0.4364159   -6.5509859   -1.9312225 
C     0.7704532   -5.6542604   -2.9570122 
C     1.3847779   -4.4373700   -2.6462107 
C     1.6809455   -4.0863356   -1.3100100 
C     1.3212318   -4.9928160   -0.2862920 
C     0.7077155   -6.2100816   -0.5954144 
H    -0.0331928   -7.5111512   -2.1683297 
H     0.5554456   -5.9008767   -4.0017791 
H     1.6492277   -3.7437540   -3.4487048 
H     1.5212570   -4.7492363    0.7604547 
H     0.4422014   -6.9020657    0.2106843 
O    -3.5305791    2.4018246    2.0834628 
O    -3.3552645   -0.4801719    3.4081306 
O    -4.8182903    3.0006218    0.2563374 
O    -2.2631082   -0.9928089    5.3851181 
O    -1.8059592   -3.3205058   -6.0437938 
O    -3.0589396   -5.3739047    3.3748572 
O     5.4699235    4.9705837    2.0651890 
O    -0.6451938    5.9402549   -2.0349680 
C    -2.1692206    0.6755975    0.9465537 
C    -1.3822255    0.3737107    2.1777912 
C    -2.0020070    0.0351563   -0.3271276 
C     0.0235290    0.6176908    2.3470930 
C    -3.1768016    1.6326781    1.0037552 
C    -2.0272904   -0.1687735    3.2882649 
C    -3.9549824    2.0007372   -0.1051187 
C    -1.3678086   -0.4807017    4.4875786 
C    -1.0924540   -2.0692722   -2.1251760 
C    -1.5068842   -2.5122046    0.7766342 
C     2.4467236    2.1532503    1.4545665 
C     0.1553901    2.3922652   -0.0328072 
C    -2.7853929    0.4087208   -1.4313950 
C     0.6778049    0.2804479    3.5487429 
C    -3.7738256    1.4141326   -1.3483560 
C    -0.0076352   -0.2670382    4.6524323 
C    -2.2656369   -3.5873804   -3.6616527 
C    -3.4831152   -3.6361691    1.7167163 
C    -0.4815721   -2.0571107   -4.5024893 
C    -1.2101914   -4.0128180    2.6873429 
C     3.4866708    3.8390306    2.9043221 
C    -0.7402789    4.6674755    0.0015540 
C     4.3074788    3.4871394    0.5750524 
C    -0.1682488    3.5622762   -2.1619637 
C    -2.0291319   -3.0781172   -2.3692706 
C    -2.8907957   -2.7338938    0.8135965 
C    -0.2957353   -1.6041336   -3.1870275 
C    -0.6913224   -3.1020365    1.7531783 
C     2.5177241    2.8403362    2.6675356 
C    -0.3755815    3.4903532    0.6660399 
C     3.3232841    2.5057968    0.4136744 
C     0.2055278    2.4151545   -1.4274972 
C    -1.5474602   -2.9820318   -4.7312765 
C    -2.5945818   -4.3510266    2.5722323 
C     4.4312293    4.0812837    1.8693849 
C    -0.5102627    4.7163313   -1.4087964 
C    -4.7419443    3.0719470    1.6910956 
C    -3.4750756   -1.2114785    4.6428594 
C    -3.2797557   -4.7572897   -3.7914027 
C    -5.0352873   -3.7414724    1.7070222 
C     0.4901852   -1.6205480   -5.6295131 
C    -0.3100093   -4.5798586    3.8146562 
C     3.3702359    4.6097829    4.2503124 
C    -1.4092303    5.8314536    0.7717500 
C     5.1277551    3.9693380   -0.6461683 
C    -0.1983117    3.4360535   -3.7095750 
C    -3.0468633   -5.6536218   -5.0333270 
C    -4.7239774   -4.1910902   -3.7950619 
C    -3.1444527   -5.6974531   -2.5602559 
C    -5.4967968   -4.6207207    0.5162222 
C    -5.6417405   -2.3221102    1.5025646 
C    -5.6435906   -4.2856835    3.0237715 
C    -0.2248613   -0.7759131   -6.7158307 
C     1.6454506   -0.7611679   -5.0643819 
C     1.1254951   -2.8739784   -6.2902109 
C     1.0714271   -3.8840157    3.8202813 
C    -0.0618471   -6.0998862    3.6412946 
C    -0.9643369   -4.3115511    5.1962098 
C     3.8315080    3.6872102    5.4077537 
C     1.8759420    4.9842558    4.4761766 
C     4.1423818    5.9512432    4.3166148 
C    -0.5307486    7.1087541    0.7871138 
C    -2.7762844    6.1419756    0.1052145 
C    -1.6715343    5.4421843    2.2453914 
C     6.6551445    3.7903841   -0.4566927 
C     4.7314185    3.1968238   -1.9262957 
C     4.8021549    5.4695169   -0.8808250 
C    -0.8661882    4.6099529   -4.4666723 
C     1.2422714    3.2405011   -4.2461667 
C    -1.0484515    2.1823816   -4.0577851 
C    -2.9602267   -2.7111205   -6.6391469 
C    -3.2791248   -6.6251623    2.7069429 
C     6.5745364    4.4743079    2.8303963 
C     0.6070047    6.5739950   -2.3368883 
H    -2.6371416   -0.1046302   -2.3854308 
H     1.7578863    0.4267304    3.6274909 
H    -4.3739260    1.7066788   -2.2130611 
H     0.5051624   -0.5170916    5.5839644 
H    -2.5820149   -3.4979976   -1.5285543 
H    -3.5296760   -2.1680442    0.1309825 
H     0.4978994   -0.8859355   -2.9636335 
H     0.3640712   -2.8190797    1.7799761 
H     1.7758764    2.6343103    3.4412240 
H    -0.4707297    3.4254370    1.7526175 
H     3.2011369    2.0117893   -0.5540816 
H     0.5565252    1.5206579   -1.9550630 
H    -4.6959027    4.1264506    2.0040634 
H    -5.6118577    2.5462239    2.1335912 
H    -3.5759471   -2.2916500    4.4176087 
H    -4.3337893   -0.8278852    5.2160589 
H    -3.3156602   -5.1691634   -5.9810940 
H    -3.6689283   -6.5606405   -4.9361609 
H    -1.9916624   -5.9675789   -5.1016642 
H    -5.4574285   -5.0157743   -3.8436210 
H    -4.9175087   -3.6123630   -2.8745205 
H    -4.9052206   -3.5230764   -4.6531558 
H    -2.1107922   -6.0634439   -2.4541749 
H    -3.4309942   -5.2135077   -1.6131336 
H    -3.8129053   -6.5652872   -2.6937283 
H    -6.5988940   -4.6931326    0.5007911 
H    -5.1720845   -4.1808115   -0.4422749 
H    -5.0879723   -5.6433701    0.5716287 
H    -5.4209205   -1.9045489    0.5058403 
H    -6.7402365   -2.3825317    1.5891629 
H    -5.2653125   -1.6093756    2.2538714 
H    -5.2502082   -3.7499184    3.9038090 
H    -6.7368651   -4.1352416    2.9948049 
H    -5.4621931   -5.3574893    3.1785415 
H    -0.8066640    0.0445213   -6.2627051 
H     0.5264224   -0.3290472   -7.3911544 
H    -0.8964200   -1.3898131   -7.3314347 
H     2.3471165   -0.5165277   -5.8797235 
H     1.2879622    0.1918467   -4.6398278 
H     2.2179263   -1.2977652   -4.2861645 
H     1.7164890   -3.4512623   -5.5575054 
H     1.8095022   -2.5602301   -7.0987854 
H     0.3559477   -3.5331055   -6.7182104 
H     1.6595767   -4.2505153    4.6786611 
H     1.6550076   -4.1067857    2.9089756 
H     0.9755542   -2.7889501    3.9159044 
H     0.6985696   -6.4372067    4.3679278 
H     0.3122275   -6.3281450    2.6277625 
H    -0.9737425   -6.6855580    3.8220931 
H    -0.3124813   -4.7018169    5.9982553 
H    -1.9439636   -4.8062337    5.2738120 
H    -1.1013326   -3.2300829    5.3637720 
H     3.7069672    4.1982348    6.3791790 
H     4.8950505    3.4110567    5.3008744 
H     3.2450375    2.7516256    5.4314480 
H     1.5032288    5.6077705    3.6449052 
H     1.2166262    4.1058474    4.5704811 
H     1.7804752    5.5641212    5.4103158 
H     3.8107236    6.4964989    5.2177774 
H     3.9369789    6.5817490    3.4368169 
H     5.2299638    5.8233832    4.4019400 
H    -0.4747957    7.5780068   -0.2050462 
H     0.4923783    6.8807544    1.1359648 
H    -0.9690315    7.8486867    1.4804412 
H    -3.2973385    6.9374669    0.6681294 
H    -2.6403412    6.4830390   -0.9327623 
H    -3.4191800    5.2445965    0.0925966 
H    -0.7324704    5.2944438    2.8062679 
H    -2.2253847    6.2585866    2.7402384 
H    -2.2686049    4.5192879    2.3328154 
H     7.1721590    3.9855580   -1.4128265 
H     6.9018425    2.7595114   -0.1451419 
H     7.0568293    4.4929281    0.2860579 
H     5.3059304    3.5944547   -2.7802728 
H     3.6598740    3.3096797   -2.1645781 
H     4.9601075    2.1180383   -1.8470076 
H     5.0847018    6.0749286   -0.0054623 
H     3.7219901    5.6039457   -1.0706297 
H     5.3570430    5.8441392   -1.7599844 
H    -1.8542316    4.8551546   -4.0463783 
H    -1.0029199    4.3060129   -5.5198961 
H    -0.2581374    5.5253272   -4.4708433 
H     1.7351995    2.3699913   -3.7797603 
H     1.2272082    3.0781520   -5.3387921 
H     1.8678386    4.1267631   -4.0418576 
H    -0.6520011    1.2541994   -3.6168524 
H    -1.0762109    2.0482985   -5.1530955 
H    -2.0834764    2.3092183   -3.6984290 
H    -3.0144056   -1.6357509   -6.3909792 
H    -2.8499053   -2.8355728   -7.7271955 
H    -3.8928507   -3.2056621   -6.3136769 
H    -2.4160841   -6.8904989    2.0694904 
H    -3.4044600   -7.3799635    3.4979065 
H    -4.1908986   -6.5978240    2.0836192 
H     7.1481945    3.7254035    2.2541675 
H     6.2401128    4.0156667    3.7779201 
H     7.2199147    5.3392524    3.0452671 
H     0.3621318    7.5330557   -2.8173887 
H     1.1901877    6.7559461   -1.4153981 
H     1.2161649    5.9604416   -3.0257493 
