213
Energy =
C     3.7130058   -1.1381667    0.3071174 
C     3.0938801   -2.4149645    0.1369370 
C     2.4175650   -2.7511814   -1.0573452 
H     3.0161941   -3.0863531    1.0016040 
Pd    1.5368790   -0.8799015   -0.0832268 
P    -0.7423990   -1.2734352   -0.4860064 
P     1.1321853    1.1809227    0.9063257 
H     4.1258150   -0.6484898   -0.5871814 
H     2.6874575   -2.1809251   -1.9598062 
C     5.3761821    0.1823684    4.0555833 
C     4.3130788   -0.7356281    4.0452164 
C     3.7724610   -1.1722374    2.8314293 
C     4.2833809   -0.7048996    1.5979870 
C     5.3547559    0.2129382    1.6252720 
C     5.8955471    0.6497663    2.8398512 
H     5.7959951    0.5290636    5.0052946 
H     3.8977316   -1.1073404    4.9883128 
H     2.9219259   -1.8607599    2.8408079 
H     5.7646263    0.5864132    0.6817386 
H     6.7276009    1.3592768    2.8355212 
C     0.4808731   -6.4761250   -1.9851318 
C     0.7164723   -6.1383748   -0.6415383 
C     1.3273142   -4.9247178   -0.3136546 
C     1.7216098   -4.0198865   -1.3261092 
C     1.4592865   -4.3667542   -2.6701485 
C     0.8462720   -5.5792584   -2.9999526 
H     0.0141227   -7.4338931   -2.2370119 
H     0.4245279   -6.8297403    0.1559524 
H     1.4986630   -4.6830426    0.7385836 
H     1.7513892   -3.6738157   -3.4634842 
H     0.6583527   -5.8227198   -4.0506011 
O    -3.4205593    2.5407448    2.0199249 
O    -3.3160543   -0.3545106    3.3537958 
O    -4.7041257    3.1379248    0.1920746 
O    -2.2506014   -0.8859894    5.3403174 
O    -1.7458811   -3.3677803   -6.0258938 
O    -3.0945070   -5.2480448    3.3408099 
O     5.6684161    4.8694632    2.2459919 
O    -1.6754703    5.4712677   -2.1998453 
C    -2.0928584    0.7766739    0.9031646 
C    -1.3188032    0.4705559    2.1423888 
C    -1.9299939    0.1275840   -0.3661783 
C     0.0875338    0.6991222    2.3272103 
C    -3.0842298    1.7505888    0.9500057 
C    -1.9821291   -0.0632994    3.2464969 
C    -3.8578322    2.1177018   -0.1622585 
C    -1.3392415   -0.3863703    4.4517577 
C    -1.0341910   -2.0088624   -2.1410380 
C    -1.4720204   -2.4125005    0.7560090 
C     2.5369260    2.2102612    1.4834639 
C     0.2269923    2.4525910   -0.0548048 
C    -2.7021940    0.5060231   -1.4767959 
C     0.7248416    0.3491976    3.5344018 
C    -3.6800091    1.5225802   -1.4019770 
C     0.0220716   -0.1928000    4.6297111 
C    -2.2019745   -3.5732035   -3.6366175 
C    -3.4757462   -3.5022931    1.6803617 
C    -0.4345953   -2.0488212   -4.5211689 
C    -1.2173498   -3.9194174    2.6677299 
C     3.6078388    3.8183337    2.9998829 
C    -0.2991323    3.4725611   -2.2206753 
C     4.4940013    3.4609910    0.6946081 
C    -0.9292439    4.6079836   -0.0863496 
C    -1.9619501   -3.0323942   -2.3581003 
C    -2.8601711   -2.6105982    0.7823038 
C    -0.2477999   -1.5596169   -3.2179266 
C    -0.6749673   -3.0165552    1.7388722 
C     2.5989711    2.8749794    2.7102408 
C     0.2519170    2.4273343   -1.4494045 
C     3.4663463    2.5347060    0.4801198 
C    -0.3198172    3.5597631    0.6156867 
C    -1.4921208   -2.9895901   -4.7233053 
C    -2.6064690   -4.2334088    2.5419355 
C     4.5993030    4.0303795    2.0019525 
C    -0.9754923    4.5002842   -1.5117208 
C    -4.6386163    3.1943338    1.6305942 
C    -3.4581649   -1.0857949    4.5863593 
C    -3.2112896   -4.7499727   -3.7355941 
C    -5.0296859   -3.5805810    1.6602685 
C     0.5259379   -1.6322405   -5.6655504 
C    -0.3360794   -4.5051742    3.8002512 
C     3.4939108    4.5583180    4.3638431 
C    -0.0736791    3.4117972   -3.7556762 
C     5.3925924    3.9074145   -0.4847854 
C    -1.3845160    5.8850599    0.6634209 
C    -2.9532951   -5.6927393   -4.9375823 
C    -4.6564058   -4.1880537   -3.7857090 
C    -3.0974337   -5.6411588   -2.4667343 
C    -5.5005806   -4.4593776    0.4730025 
C    -5.6108323   -2.1528874    1.4415645 
C    -5.6553402   -4.1054458    2.9768386 
C     1.1699903   -2.8937759   -6.3021784 
C    -0.2068553   -0.8211919   -6.7661451 
C     1.6767891   -0.7489216   -5.1304328 
C    -0.9959555   -4.2297996    5.1778123 
C     1.0567356   -3.8331665    3.8188077 
C    -0.1126413   -6.0285549    3.6222101 
C     3.9079005    3.5912553    5.5032422 
C     2.0107009    4.9743986    4.5855833 
C     4.3068931    5.8730247    4.4724290 
C    -0.9462320    2.2818261   -4.3571156 
C    -0.3440168    4.7295962   -4.5232683 
C     1.4272685    3.0891124   -4.0096235 
C     5.1543823    5.4229008   -0.7241364 
C     6.8995605    3.6529566   -0.2279336 
C     5.0205058    3.1588846   -1.7861687 
C    -1.2844067    5.6926274    2.1944360 
C    -0.4202433    7.0287952    0.2470790 
C    -2.8419284    6.3141007    0.3507801 
C    -2.9044644   -2.7931309   -6.6462758 
C    -3.3346186   -6.4954102    2.6725809 
C     6.7249227    4.3285176    3.0473880 
C    -2.9795936    5.0584502   -2.6339514 
H    -2.5546525   -0.0128155   -2.4282417 
H     1.8055311    0.4821671    3.6252646 
H    -4.2725151    1.8162737   -2.2714612 
H     0.5229273   -0.4520168    5.5652347 
H    -2.5053520   -3.4391780   -1.5052696 
H    -3.4835787   -2.0356971    0.0930569 
H     0.5380642   -0.8262856   -3.0172364 
H     0.3847734   -2.7517195    1.7750694 
H     1.8242874    2.6896988    3.4562422 
H     0.7247975    1.5740095   -1.9477760 
H     3.3597390    2.0576302   -0.4978585 
H    -0.2653858    3.5909167    1.7058969 
H    -4.6125379    4.2447691    1.9561160 
H    -5.5040665    2.6482337    2.0575886 
H    -3.5725503   -2.1639810    4.3583720 
H    -4.3168515   -0.6906295    5.1517149 
H    -3.1958435   -5.2428740   -5.9090631 
H    -3.5805546   -6.5939507   -4.8218673 
H    -1.8978045   -6.0118811   -4.9678902 
H    -5.3873883   -5.0159423   -3.8120837 
H    -4.8650414   -3.5733049   -2.8922731 
H    -4.8258672   -3.5555824   -4.6722852 
H    -2.0639994   -5.9949460   -2.3233685 
H    -3.4096278   -5.1234462   -1.5461319 
H    -3.7567804   -6.5185246   -2.5819359 
H    -6.6036704   -4.5131986    0.4534138 
H    -5.1647077   -4.0304504   -0.4864664 
H    -5.1095739   -5.4884162    0.5359219 
H    -5.3765641   -1.7468908    0.4431023 
H    -6.7107434   -2.1946408    1.5211488 
H    -5.2277026   -1.4406974    2.1898599 
H    -5.2583478   -3.5708366    3.8559388 
H    -6.7456720   -3.9364408    2.9402741 
H    -5.4930077   -5.1790504    3.1398002 
H     0.4052757   -3.5740155   -6.7046920 
H     1.8401997   -2.5905549   -7.1261448 
H     1.7781231   -3.4442983   -5.5631178 
H     0.5345211   -0.3714405   -7.4504226 
H    -0.8662958   -1.4592744   -7.3701737 
H    -0.8052346   -0.0049574   -6.3275545 
H     2.2572616   -1.2587686   -4.3401193 
H     1.3139305    0.2122415   -4.7311499 
H     2.3728460   -0.5215248   -5.9555144 
H    -0.3558168   -4.6316814    5.9835432 
H    -1.1174364   -3.1465409    5.3464436 
H    -1.9837199   -4.7091346    5.2476346 
H     0.9779691   -2.7371237    3.9185209 
H     1.6433271   -4.0621164    2.9109531 
H     1.6324458   -4.2127779    4.6799245 
H     0.6364809   -6.3820488    4.3528856 
H     0.2649909   -6.2587695    2.6102995 
H    -1.0356594   -6.5994013    3.7936309 
H     3.7871770    4.0817115    6.4857172 
H     4.9621993    3.2798054    5.4042944 
H     3.2885849    2.6767110    5.4943944 
H     1.6677558    5.6369127    3.7723620 
H     1.3209581    4.1166497    4.6463606 
H     1.9249555    5.5272694    5.5367935 
H     3.9732575    6.4126504    5.3761945 
H     4.1405817    6.5252603    3.6001604 
H     5.3876352    5.7094972    4.5784803 
H    -2.0205043    2.4833973   -4.2030302 
H    -0.7230157    1.3051739   -3.8943692 
H    -0.7663652    2.1984183   -5.4435955 
H     0.0527090    4.6188763   -5.5483116 
H    -1.4128507    4.9674999   -4.6135909 
H     0.1597907    5.5862429   -4.0485174 
H     1.7503245    2.1402961   -3.5517173 
H     1.6121439    3.0116297   -5.0951897 
H     2.0670650    3.8937731   -3.6079156 
H     5.7673838    5.7720721   -1.5746222 
H     5.4277877    6.0086313    0.1673551 
H     4.0928903    5.6148869   -0.9614796 
H     7.4661741    3.8213419   -1.1607017 
H     7.0831473    2.6118537    0.0929393 
H     7.3031998    4.3365616    0.5311173 
H     3.9688544    3.3247388   -2.0759627 
H     5.1919726    2.0697916   -1.7012915 
H     5.6540457    3.5300942   -2.6095821 
H    -1.6090464    6.6185879    2.6988659 
H    -0.2518737    5.4866130    2.5219631 
H    -1.9289279    4.8660390    2.5440155 
H    -0.4789639    7.2096745   -0.8388750 
H    -0.6903478    7.9633533    0.7714150 
H     0.6224850    6.7741707    0.5072447 
H    -2.9291859    6.7653920   -0.6469696 
H    -3.1660335    7.0693178    1.0884945 
H    -3.5346065    5.4586272    0.4081195 
H    -2.7640497   -2.9057227   -7.7323100 
H    -3.8272106   -3.3223543   -6.3482078 
H    -3.0012316   -1.7220875   -6.3929555 
H    -4.2494167   -6.4553952    2.0544408 
H    -2.4785536   -6.7713401    2.0302673 
H    -3.4657816   -7.2495983    3.4632230 
H     7.3816100    5.1716303    3.3095776 
H     7.3053894    3.5785982    2.4797528 
H     6.3384472    3.8580191    3.9685167 
H    -3.4360320    5.9333615   -3.1208240 
H    -2.9170911    4.2264731   -3.3595038 
H    -3.6019732    4.7391082   -1.7794207 
