213
Energy =
C    -3.2535333   -2.1495715   -0.5719194 
C    -3.5620991   -0.9579127   -1.2630284 
C    -2.8455832   -0.5775240   -2.4423220 
H    -4.2722444   -0.2552633   -0.8061018 
Pd   -1.4611946   -0.7001244   -0.7091513 
P     0.2585517    0.6575124   -1.4708781 
P    -0.5512996   -0.6987021    1.4684822 
H    -2.7494448   -2.9428712   -1.1471889 
H    -2.4672233   -1.3865306   -3.0845501 
C    -5.4151946   -3.4945012    2.8971331 
C    -5.1944914   -4.3563992    1.8123054 
C    -4.4573380   -3.9211495    0.7040317 
C    -3.9605153   -2.6008456    0.6447329 
C    -4.1885605   -1.7459470    1.7430923 
C    -4.9006593   -2.1890237    2.8617090 
H    -5.9788955   -3.8406925    3.7697134 
H    -5.5964431   -5.3749508    1.8295548 
H    -4.2866228   -4.6018787   -0.1372122 
H    -3.7685502   -0.7375893    1.7332610 
H    -5.0444762   -1.5157851    3.7132081 
C    -3.3915035    3.2153361   -4.4112006 
C    -3.0321903    2.0766570   -5.1461818 
C    -2.8696064    0.8454896   -4.4996124 
C    -3.0476965    0.7265028   -3.1049594 
C    -3.3941123    1.8879290   -2.3756444 
C    -3.5715354    3.1156889   -3.0209268 
H    -3.5266738    4.1767887   -4.9168785 
H    -2.8743527    2.1447408   -6.2273285 
H    -2.5987907   -0.0405875   -5.0809001 
H    -3.5047491    1.8311985   -1.2878242 
H    -3.8442399    4.0010029   -2.4361814 
O     4.1845674    1.7011123    1.0644458 
O     2.0669971    3.2075199    2.7977133 
O     5.3885755   -0.1072281    1.8742120 
O     0.8439301    5.1304626    2.4267424 
O    -2.7254188    3.9706484    4.5770350 
O    -1.9055117   -5.7057043    4.4953429 
O     5.7236540   -1.7312917   -2.1337682 
O     0.8345667    2.2842965   -7.2047914 
C     1.9380041    0.6866893    1.2694908 
C     1.2339314    1.9275899    0.8445426 
C     1.2774392   -0.5283504    1.6612832 
C     0.3806113    2.0562577   -0.2977641 
C     3.3229336    0.6905046    1.4045074 
C     1.3261927    3.0598032    1.6511801 
C     4.0515183   -0.4054513    1.8880646 
C     0.5731116    4.2223402    1.4319915 
C    -1.2069434    0.7441288    2.4004150 
C    -0.9676661   -2.1959255    2.4384299 
C     1.9347330   -0.0946029   -1.5559181 
C     0.2103860    1.3175090   -3.1836554 
C     2.0210509   -1.6179623    2.1492874 
C    -0.4211818    3.2021587   -0.4735493 
C     3.4259278   -1.5791653    2.2792895 
C    -0.3445641    4.3114364    0.3945780 
C    -2.9459877    2.4647664    2.6760968 
C    -1.2537454   -4.6330721    2.4478330 
C    -1.1221931    2.2074580    4.3662214 
C    -1.4601760   -3.3206679    4.5645267 
C     4.2355362    0.1791856   -2.3669822 
C     0.4182558    0.6339727   -5.5291821 
C     3.4160396   -2.0381525   -1.5598279 
C     0.5005775    3.0477190   -4.9014943 
C    -2.3551401    1.4086011    1.9535673 
C    -0.9707579   -3.4347072    1.7740952 
C    -0.6052524    1.1472346    3.6053154 
C    -1.2050803   -2.1558076    3.8150322 
C     2.9686918    0.7026100   -2.0610003 
C     0.2109263    0.3271066   -4.1796231 
C     2.1492996   -1.4641458   -1.3531121 
C     0.3470114    2.6549426   -3.5553105 
C    -2.2658258    2.8930282    3.8510142 
C    -1.5608991   -4.5420472    3.8411291 
C     4.4661058   -1.1781664   -2.0033178 
C     0.6141089    2.0098005   -5.8708215 
C     5.4709915    1.2952850    1.5596922 
C     2.0208384    4.6151603    3.0772035 
C    -4.2836133    3.0522648    2.1442174 
C    -1.0952704   -5.9903542    1.7149540 
C    -0.5444294    2.4896270    5.7773023 
C    -1.5658329   -3.1443169    6.1061239 
C     5.1983255    1.1006433   -3.1686521 
C     0.4237611   -0.5032453   -6.5810865 
C     3.6129715   -3.5684197   -1.4300398 
C     0.5311621    4.5712224   -5.2011335 
C    -3.9888392    4.0976258    1.0378242 
C    -5.1822206    3.6708986    3.2459591 
C    -5.1365036    1.9188381    1.5106280 
C    -0.8922247   -5.7854049    0.1963373 
C    -2.3036927   -6.9483716    1.8702282 
C     0.1721447   -6.6749288    2.2942238 
C    -0.2788294    3.9888457    6.0759132 
C    -1.5833363    1.9579827    6.8019886 
C     0.7950627    1.7438523    5.9898323 
C    -0.4111559   -2.2115258    6.5728292 
C    -1.4079156   -4.4425539    6.9367694 
C    -2.9154684   -2.4618072    6.4496852 
C     4.3636911    1.8190631   -4.2722370 
C     6.3273891    0.3537454   -3.9205571 
C     5.8090766    2.1782309   -2.2385980 
C     1.8341732   -0.6529662   -7.2077743 
C     0.0750321   -1.8678204   -5.9387643 
C    -0.6300075   -0.2301146   -7.6863563 
C     2.3160744   -4.2506072   -0.9425258 
C     3.9573402   -4.1340371   -2.8337886 
C     4.7303739   -3.9547284   -0.4266803 
C    -0.2163823    5.3576789   -4.0878182 
C     1.9936578    5.0899112   -5.2056276 
C    -0.1967232    4.9197821   -6.5242409 
C    -2.3754523    5.2706214    4.0726712 
C    -3.3042683   -5.8644501    4.7738839 
C     6.6606879   -1.3447592   -1.1187672 
C     2.1356331    2.6970005   -7.6437274 
H     1.4950491   -2.5256446    2.4580595 
H    -1.1263073    3.2405149   -1.3084219 
H     3.9890451   -2.4265699    2.6760317 
H    -0.9685025    5.1960875    0.2515810 
H    -2.7956439    1.0908505    1.0034670 
H    -0.7543295   -3.4485705    0.7024690 
H     0.2921922    0.6244640    3.9417746 
H    -1.1842319   -1.1916691    4.3264918 
H     2.7596489    1.7528778   -2.2796110 
H     0.0828003   -0.7146094   -3.8744002 
H     1.3111295   -2.0786006   -1.0160852 
H     0.3530734    3.4248161   -2.7857040 
H     5.7094819    1.8647055    2.4801517 
H     6.2299632    1.4518175    0.7777622 
H     2.9191813    5.1059390    2.6501726 
H     1.9413838    4.7721705    4.1621084 
H    -3.4116894    4.9521333    1.4263760 
H    -4.9328329    4.4848962    0.6141865 
H    -3.4012280    3.6434356    0.2216103 
H    -6.1826131    3.8596904    2.8184519 
H    -5.2976585    2.9793596    4.0971027 
H    -4.8050603    4.6247492    3.6359088 
H    -4.6634190    1.4700311    0.6221314 
H    -5.3361717    1.1135547    2.2380455 
H    -6.1051540    2.3313592    1.1817405 
H    -0.7731662   -6.7683283   -0.2899493 
H    -1.7637436   -5.2855764   -0.2639128 
H     0.0085865   -5.1969776   -0.0333026 
H    -3.2497695   -6.4392041    1.6222068 
H    -2.1830272   -7.7945563    1.1711468 
H    -2.3712099   -7.3635414    2.8842782 
H     0.0548807   -6.8539819    3.3757353 
H     0.3425499   -7.6465420    1.7959556 
H     1.0647619   -6.0438985    2.1345252 
H    -1.2068577    4.5342541    6.2914154 
H     0.3739808    4.0733285    6.9621974 
H     0.2269177    4.4866866    5.2331604 
H    -1.2198465    2.1188486    7.8330852 
H    -2.5447745    2.4851504    6.6845582 
H    -1.7559714    0.8762369    6.6626842 
H     1.5507284    2.0519315    5.2456520 
H     0.6836404    0.6482450    5.9341562 
H     1.1836888    1.9764690    6.9957710 
H    -0.4472986   -2.1006273    7.6703118 
H     0.5716400   -2.6340274    6.2999253 
H    -0.4805922   -1.2000746    6.1428441 
H    -0.5248927   -5.0207272    6.6212540 
H    -2.2853152   -5.1011959    6.8871544 
H    -1.2759510   -4.1604000    7.9961992 
H    -3.0097548   -1.4872462    5.9381711 
H    -2.9913777   -2.2873964    7.5379172 
H    -3.7729812   -3.0853943    6.1425795 
H     5.0377836    2.4118469   -4.9152306 
H     3.6090850    2.5110399   -3.8653030 
H     3.8363850    1.0819345   -4.9026321 
H     7.1054997   -0.0441607   -3.2549332 
H     5.9277626   -0.4833301   -4.5161135 
H     6.8173299    1.0643905   -4.6095555 
H     6.3945722    2.9068589   -2.8271901 
H     6.4908735    1.7244373   -1.4981238 
H     5.0233188    2.7231875   -1.6872830 
H     2.5977534   -0.7915267   -6.4215490 
H     2.1109570    0.2186212   -7.8152891 
H     1.8579818   -1.5386845   -7.8674371 
H     0.0518555   -2.6398204   -6.7265440 
H     0.8240488   -2.1811081   -5.1895207 
H    -0.9192523   -1.8585554   -5.4566223 
H    -0.4321884    0.7190387   -8.2043899 
H    -0.6144413   -1.0493968   -8.4271216 
H    -1.6456308   -0.1868428   -7.2541976 
H     1.4740203   -4.0899221   -1.6382401 
H     2.0177020   -3.8892028    0.0579343 
H     2.4793240   -5.3394668   -0.8715429 
H     4.0802649   -5.2309645   -2.7805357 
H     4.8937237   -3.6958420   -3.2134653 
H     3.1467767   -3.9127123   -3.5513290 
H     4.5967388   -3.4305545    0.5343519 
H     5.7301633   -3.7289339   -0.8205402 
H     4.6871683   -5.0408723   -0.2307883 
H    -0.2978746    6.4158091   -4.3897976 
H     0.3167829    5.3409514   -3.1214435 
H    -1.2343279    4.9626302   -3.9303534 
H     2.6155480    4.6066377   -5.9726462 
H     2.0090770    6.1788909   -5.3916809 
H     2.4668936    4.9035868   -4.2252127 
H     0.2825263    4.4926548   -7.4140024 
H    -0.2304489    6.0169820   -6.6430586 
H    -1.2351061    4.5458888   -6.4969863 
H    -3.0932792    5.6047883    3.3017898 
H    -2.4254099    5.9638487    4.9262771 
H    -1.3566498    5.2734234    3.6492973 
H    -3.8809850   -5.9801578    3.8406021 
H    -3.3968170   -6.7745583    5.3852854 
H    -3.7067169   -5.0000910    5.3306701 
H     6.2572383   -1.5360608   -0.1092619 
H     6.9234428   -0.2736418   -1.1992550 
H     7.5644071   -1.9501451   -1.2847269 
H     2.3186286    2.2116101   -8.6165840 
H     2.1707955    3.7919560   -7.7863785 
H     2.9164543    2.3909954   -6.9268523 
