213
Energy =
C     3.2652281   -0.9568502    0.8568301 
C     2.9160695   -2.2300494    0.3084915 
C     2.5249293   -2.3667443   -1.0417774 
H     2.7770343   -3.0847809    0.9833354 
Pd    1.1991832   -0.8638166    0.0444610 
P    -0.9179538   -1.3340732   -0.7967024 
P     0.6950586    1.3154724    0.6926930 
H     3.7615975   -0.2336793    0.1960474 
H     2.7896417   -1.5474379   -1.7299093 
C     3.9308393   -0.3130165    5.0635645 
C     4.5349766    0.5178579    4.1088248 
C     4.3051437    0.3121511    2.7420674 
C     3.4729322   -0.7414904    2.3018306 
C     2.8615313   -1.5657647    3.2772074 
C     3.0915953   -1.3569253    4.6398628 
H     4.1139359   -0.1519248    6.1309773 
H     5.1984230    1.3263453    4.4311164 
H     4.7810983    0.9652708    2.0023885 
H     2.1841866   -2.3687788    2.9655419 
H     2.6120490   -2.0087692    5.3774363 
C     1.4480373   -6.0016822   -3.0650528 
C     1.1015329   -4.7532312   -3.6040283 
C     1.4534187   -3.5795352   -2.9325206 
C     2.1425261   -3.6266402   -1.6990880 
C     2.4753445   -4.8903445   -1.1617397 
C     2.1393344   -6.0641451   -1.8453750 
H     1.1887300   -6.9218565   -3.5985096 
H     0.5581938   -4.6953041   -4.5523291 
H     1.1763541   -2.6090211   -3.3546465 
H     3.0339436   -4.9568860   -0.2226300 
H     2.4312593   -7.0342225   -1.4298511 
O    -3.7122060    2.2909632    1.8907609 
O    -4.1126834    2.1964945   -1.3114373 
O    -4.7505262    0.7534677    3.2769677 
O    -3.4523930    3.8414797   -2.7927270 
O    -2.2191434    1.1715331   -6.0797161 
O    -1.9154760   -7.2432140   -0.6067565 
O    -1.2881738    2.5395677    6.1967312 
O     5.7191301    4.5783344    0.1825297 
C    -2.4254018    0.6615414    0.5388969 
C    -1.8763830    1.7119550   -0.3661503 
C    -2.1994873   -0.7479515    0.3908592 
C    -0.5062467    2.1223672   -0.4494789 
C    -3.3066072    1.0265964    1.5532384 
C    -2.7596129    2.3950559   -1.1958586 
C    -3.9446649    0.0967204    2.3892773 
C    -2.3565496    3.3920169   -2.0970695 
C    -1.3455203   -0.6140092   -2.4152695 
C    -1.1983264   -3.1384488   -0.8718419 
C    -0.0164268    1.6604088    2.3355858 
C     2.2256485    2.3181867    0.5759145 
C    -2.8628228   -1.6698048    1.2226533 
C    -0.1100198    3.1204961   -1.3576644 
C    -3.7538458   -1.2674422    2.2396403 
C    -1.0271950    3.7679507   -2.2153816 
C    -0.5379851    0.3946993   -4.5058631 
C    -2.3062854   -5.1366571   -1.7668802 
C    -2.9797841    0.0013980   -4.1303430 
C    -0.9663047   -5.2572188    0.3403811 
C    -0.9273211    3.3091068    3.9123383 
C     4.2175129    2.8919353   -0.7573677 
C    -0.7145861    0.8968610    4.5481684 
C     3.9044347    3.8201456    1.5391341 
C    -0.3064208   -0.1510696   -3.2288753 
C    -1.9968273   -3.7619809   -1.8327484 
C    -2.6714421   -0.5520306   -2.8776790 
C    -0.6939246   -3.8906944    0.2032653 
C    -0.4279530    2.9645875    2.6430990 
C     3.0053762    2.1998582   -0.5862956 
C    -0.2038401    0.6302946    3.2674895 
C     2.7090431    3.0865651    1.6434544 
C    -1.8979393    0.5360624   -4.8990503 
C    -1.7151871   -5.8814578   -0.7059896 
C    -0.9624574    2.2649621    4.8834302 
C     4.6010910    3.7803346    0.2947742 
C    -4.4282003    2.1464373    3.1324354 
C    -4.5826675    3.3258611   -2.0622707 
C     0.7072463    0.7767296   -5.3530681 
C    -3.2998619   -5.6851165   -2.8307081 
C    -4.4218678   -0.1085142   -4.6891269 
C    -0.5761949   -5.9912382    1.6482262 
C    -1.3964297    4.7777138    4.1211711 
C     5.0430643    2.6163122   -2.0437795 
C    -1.0325178   -0.2671445    5.5202872 
C     4.4272200    4.6108145    2.7653975 
C     0.4511393    0.8590533   -6.8787956 
C     1.7984010   -0.3171428   -5.1734073 
C     1.2828859    2.1193720   -4.8356984 
C    -4.0399864   -6.9821054   -2.4159349 
C    -2.5539902   -5.9043407   -4.1725116 
C    -4.4133234   -4.6258270   -3.0757404 
C    -4.3834927   -1.1467471   -5.8431579 
C    -5.4020375   -0.6101668   -3.6019079 
C    -4.9974495    1.2235227   -5.2378370 
C    -1.8847123   -6.4480346    2.3478864 
C     0.1725432   -5.0452930    2.6179878 
C     0.3419994   -7.2164909    1.4148280 
C    -2.1163961    5.2734931    2.8332657 
C    -0.1657023    5.6944450    4.3455888 
C    -2.4051528    4.9660891    5.2819168 
C     4.6183034    3.5988533   -3.1665018 
C     6.5721651    2.6837429   -1.7995310 
C     4.7617988    1.1781878   -2.5618198 
C    -0.0906208   -0.2599929    6.7518617 
C    -2.5087705   -0.1656157    5.9880835 
C    -0.8640987   -1.6339105    4.8140081 
C     5.8964957    4.2205150    3.0767483 
C     4.3226842    6.1368478    2.5150967 
C     3.5920320    4.2956696    4.0302748 
C    -2.2210382    2.6076676   -6.0152028 
C    -1.1143108   -8.0639138   -1.4661076 
C    -0.2263031    3.0948865    6.9871485 
C     5.6446143    5.7589108   -0.6277922 
H    -2.6893192   -2.7394194    1.0825338 
H     0.9380784    3.4294743   -1.3905364 
H    -4.2663202   -1.9930359    2.8753265 
H    -0.7073361    4.5401314   -2.9188005 
H     0.7154238   -0.2115541   -2.8413623 
H    -2.4044964   -3.1605316   -2.6476591 
H    -3.4687484   -0.9282043   -2.2335822 
H    -0.0988199   -3.3726693    0.9609679 
H    -0.3548116    3.7320203    1.8679796 
H     2.6592283    1.5261721   -1.3761568 
H     0.0502759   -0.3899875    2.9715252 
H     2.1452403    3.1067089    2.5760057 
H    -5.3557919    2.7387683    3.0932616 
H    -3.7713499    2.4587064    3.9681355 
H    -4.9529340    4.1048562   -1.3651085 
H    -5.3601515    3.0007497   -2.7679474 
H    -0.0754718   -0.0372790   -7.2450295 
H     1.4258036    0.9213670   -7.3943318 
H    -0.1326693    1.7401757   -7.1758917 
H     2.6707252   -0.0719477   -5.8030224 
H     2.1642353   -0.3965379   -4.1363081 
H     1.4204713   -1.3071299   -5.4824280 
H     0.5658223    2.9467167   -4.9676665 
H     1.5166542    2.0556224   -3.7587632 
H     2.2096577    2.3767889   -5.3788411 
H    -4.8689052   -7.1518111   -3.1253078 
H    -3.4028112   -7.8759357   -2.4431330 
H    -4.4657018   -6.8960428   -1.4029679 
H    -1.7470447   -6.6504342   -4.0752192 
H    -3.2567186   -6.2603329   -4.9469414 
H    -2.0995021   -4.9621445   -4.5265874 
H    -4.0280562   -3.7030031   -3.5388174 
H    -5.1668530   -5.0406512   -3.7667867 
H    -4.9206832   -4.3546154   -2.1334601 
H    -4.0350183   -2.1284745   -5.4765815 
H    -5.3936922   -1.2775857   -6.2713779 
H    -3.7057826   -0.8095560   -6.6448475 
H    -6.4160710   -0.6754468   -4.0313617 
H    -5.1422753   -1.6154917   -3.2302248 
H    -5.4370011    0.0793857   -2.7395402 
H    -4.5641623    1.4872182   -6.2118082 
H    -4.8189190    2.0576962   -4.5403024 
H    -6.0883201    1.1203754   -5.3730141 
H    -1.6470861   -6.9573645    3.2992449 
H    -2.5273249   -5.5784455    2.5750890 
H    -2.4481955   -7.1453472    1.7085777 
H     0.4039807   -5.5913811    3.5482266 
H    -0.4290107   -4.1617466    2.8941806 
H     1.1307125   -4.6965548    2.1909138 
H     0.7062821   -7.5932553    2.3869767 
H     1.2201295   -6.9425353    0.8057386 
H    -0.1933359   -8.0389024    0.9219830 
H    -2.5324761    6.2792391    3.0153346 
H    -2.9370951    4.5988699    2.5411787 
H    -1.4333825    5.3592166    1.9715952 
H     0.4123097    5.4002825    5.2372985 
H     0.5124077    5.6561607    3.4750892 
H    -0.4904066    6.7417630    4.4792027 
H    -2.8265371    5.9847103    5.2204909 
H    -1.9519298    4.8559643    6.2758758 
H    -3.2398010    4.2483604    5.2151397 
H     4.8117238    4.6480592   -2.8981053 
H     3.5401676    3.4988516   -3.3787726 
H     5.1735157    3.3783166   -4.0959345 
H     7.0965499    2.3347824   -2.7062400 
H     6.9328269    3.6935851   -1.5670526 
H     6.8617741    2.0254534   -0.9620951 
H     3.7281502    1.0460646   -2.9222533 
H     5.4260276    0.9655048   -3.4163864 
H     4.9620645    0.4221801   -1.7814727 
H    -0.2194813   -1.1975253    7.3219951 
H    -0.3175624    0.5720703    7.4332515 
H     0.9661486   -0.1896610    6.4408084 
H    -2.7457554   -1.0129454    6.6562187 
H    -3.1979581   -0.2054372    5.1278703 
H    -2.6885418    0.7707704    6.5372159 
H     0.1822333   -1.8231666    4.5211917 
H    -1.4984328   -1.7100434    3.9139605 
H    -1.1650914   -2.4376347    5.5078025 
H     5.9783310    3.1355323    3.2635906 
H     6.2358502    4.7486965    3.9855557 
H     6.5696938    4.4774348    2.2469829 
H     3.2880248    6.4208325    2.2524953 
H     4.6056757    6.6855800    3.4311533 
H     4.9918077    6.4697677    1.7096462 
H     2.5462696    4.6318129    3.9364141 
H     4.0323636    4.8278661    4.8908477 
H     3.5880590    3.2174483    4.2649094 
H    -2.7796590    2.9672314   -5.1340306 
H    -1.1916957    3.0083868   -5.9768974 
H    -2.7089749    2.9590311   -6.9367556 
H    -1.2817408   -7.8241737   -2.5308100 
H    -0.0408009   -7.9426275   -1.2401055 
H    -1.4204712   -9.1026574   -1.2714818 
H    -0.5490046    3.0186206    8.0365074 
H    -0.0491526    4.1570108    6.7389892 
H     0.7123057    2.5302170    6.8423576 
H     6.2458907    6.5342302   -0.1256594 
H     6.0733787    5.5757948   -1.6297669 
H     4.6024628    6.1089702   -0.7300777 
