213
Energy =
C    -3.6064651   -1.2142565    0.4243954 
C    -3.8980358   -0.1543139   -0.4641726 
C    -3.4024262   -0.1532952   -1.8047706 
H    -4.3827755    0.7508026   -0.0763780 
Pd   -1.7043551   -0.2261787   -0.3688220 
P     0.0041083    0.7138666   -1.6182543 
P    -0.3893520   -0.2847135    1.5724130 
H    -3.3244308   -2.1777133   -0.0278089 
H    -3.2728653   -1.1275009   -2.2991675 
C    -4.8772053   -1.6251281    4.5124841 
C    -4.9061248   -0.3581733    3.9058960 
C    -4.4845173   -0.1970378    2.5830116 
C    -4.0245813   -1.3038728    1.8328971 
C    -3.9866867   -2.5675858    2.4638734 
C    -4.4072340   -2.7302381    3.7873134 
H    -5.2195207   -1.7472529    5.5452518 
H    -5.2649376    0.5098397    4.4688361 
H    -4.5153904    0.7987595    2.1330767 
H    -3.6265876   -3.4323039    1.9002796 
H    -4.3680432   -3.7217685    4.2498247 
C    -3.7553009    3.2129832   -4.4703671 
C    -3.7207620    3.4197652   -3.0814239 
C    -3.6152736    2.3309438   -2.2098115 
C    -3.5466451    1.0077636   -2.7050717 
C    -3.5900603    0.8162393   -4.1027243 
C    -3.6939293    1.9060500   -4.9746569 
H    -3.8300090    4.0655530   -5.1530462 
H    -3.7673792    4.4362256   -2.6754931 
H    -3.5527243    2.5115542   -1.1321365 
H    -3.5377643   -0.1997815   -4.5065388 
H    -3.7257064    1.7325527   -6.0540466 
O     4.0524584    2.4119950    0.5569530 
O     1.7904168    3.8390085    2.2721169 
O     5.4818500    0.7430054    1.2826551 
O     0.5561904    5.6804953    1.6019786 
O    -1.9161911    4.0086776    5.4714499 
O    -0.7532617   -5.5967871    4.3392070 
O     4.8173409   -2.2184989   -3.4122292 
O    -0.3650522    1.0776717   -7.5867870 
C     1.9345545    1.1911800    0.9433149 
C     1.1007294    2.3215552    0.4400036 
C     1.4324315   -0.0607427    1.4338616 
C     0.2898857    2.2935712   -0.7457758 
C     3.3175701    1.3337477    0.9806564 
C     1.0977702    3.5319316    1.1315797 
C     4.1859966    0.3200086    1.4151289 
C     0.3501714    4.6493717    0.7279691 
C    -0.8006792    1.0891064    2.7174267 
C    -0.6015741   -1.8618278    2.4808841 
C     1.6035839   -0.1679303   -1.7678379 
C    -0.2465242    1.0143753   -3.4116034 
C     2.3082322   -1.0696756    1.8674273 
C    -0.4727068    3.4151269   -1.1281946 
C     3.7111115   -0.9064986    1.8542219 
C    -0.4501423    4.6247622   -0.4042209 
C    -0.2850266    2.3336199    4.7760874 
C    -0.8832304   -4.2958380    2.3344473 
C    -2.1877989    3.0181741    3.3063040 
C    -0.7631463   -3.1664699    4.5577364 
C     3.8547344   -0.1275575   -2.7218722 
C     0.1584810    2.2261889   -5.5074445 
C     2.7880578   -2.2907911   -2.0797531 
C    -0.5382847   -0.1690515   -5.5399421 
C     0.0003820    1.3174234    3.8452520 
C    -0.7688066   -3.0364847    1.7253147 
C    -1.8441483    1.9798001    2.4258430 
C    -0.6445648   -1.9387837    3.8760733 
C     2.7198907    0.5400756   -2.2460347 
C     0.1302942    2.1703484   -4.0973422 
C     1.6642146   -1.5566262   -1.6403782 
C    -0.5475759   -0.1490131   -4.1409315 
C    -1.4618894    3.1012232    4.5353039 
C    -0.7757661   -4.3448457    3.7592103 
C     3.8101918   -1.5565242   -2.7372483 
C    -0.2688934    1.0653892   -6.2087631 
C     5.3975511    2.1502373    0.9956453 
C     1.2800933    5.1132734    2.7073679 
C     0.7178990    2.5309206    5.9486710 
C    -1.1949870   -5.5554444    1.4850607 
C    -3.2814661    4.0462794    2.9198454 
C    -0.8718713   -3.1112383    6.1069029 
C     5.1097475    0.6659850   -3.1585425 
C     0.7183214    3.5340160   -6.1363020 
C     2.8068773   -3.8129361   -1.7722067 
C    -0.6974241   -1.5107368   -6.2959736 
C     0.4668317    1.4610489    7.0424487 
C     0.6833774    3.9441261    6.5824048 
C     2.1679195    2.3276709    5.4194624 
C    -1.4254925   -5.1815343    0.0019611 
C    -2.4966003   -6.2256521    2.0026458 
C    -0.0379223   -6.5872061    1.5268484 
C    -4.5336276    3.9192020    3.8241196 
C    -2.7096677    5.4857763    3.0187105 
C    -3.7436728    3.8377293    1.4585800 
C    -1.5745034   -4.3415747    6.7334143 
C    -1.7281866   -1.8802698    6.5191725 
C     0.5424721   -2.9282228    6.7172052 
C     4.9288240    2.1787161   -2.8922596 
C     5.4130874    0.5024396   -4.6699803 
C     6.3209038    0.1714946   -2.3231079 
C     2.0152855    3.9319936   -5.3723188 
C     1.1361983    3.4305226   -7.6244098 
C    -0.3253288    4.6679658   -5.9677288 
C     4.1567743   -4.5307270   -2.0165972 
C     2.5157434   -3.9852968   -0.2552087 
C     1.6982263   -4.5249127   -2.5880992 
C    -0.9037191   -2.6861329   -5.3117959 
C    -1.8997034   -1.5143768   -7.2732995 
C     0.6155486   -1.7782361   -7.0809830 
C    -2.6239630    3.4411718    6.5837838 
C     0.5301453   -6.0583491    4.7845334 
C     4.4195100   -2.7148184   -4.6991994 
C    -1.5316180    1.7151822   -8.1206433 
H     1.8922326   -2.0090225    2.2417194 
H    -1.1221686    3.3449329   -2.0041335 
H     4.3876212   -1.6982825    2.1841369 
H    -1.0370644    5.4928358   -0.7127160 
H     0.8883893    0.6974008    3.9904369 
H    -0.8287567   -2.9484190    0.6371407 
H    -2.3756114    1.8553381    1.4789497 
H    -0.6027686   -1.0163254    4.4560663 
H     2.6778173    1.6315053   -2.2729804 
H     0.4567483    3.0442158   -3.5306481 
H     0.8093745   -2.0810081   -1.1978908 
H    -0.7640196   -1.0653063   -3.5850592 
H     5.6012479    2.7281117    1.9195018 
H     6.1025299    2.4030009    0.1886963 
H     2.1195299    5.7733193    2.9770715 
H     0.5863002    4.9563482    3.5568865 
H    -0.5535489    1.5211064    7.4560384 
H     1.1817097    1.5915398    7.8743201 
H     0.6041730    0.4454766    6.6331678 
H     1.5500364    4.0482373    7.2583647 
H     0.7545903    4.7335847    5.8155439 
H    -0.2215854    4.1357389    7.1736886 
H     2.3658786    1.2875566    5.1103765 
H     2.3779494    2.9790501    4.5557278 
H     2.8835606    2.5648266    6.2253598 
H    -1.7002622   -6.0891274   -0.5616241 
H    -2.2500757   -4.4558458   -0.1186581 
H    -0.5201281   -4.7624679   -0.4684345 
H    -3.3600467   -5.5446261    1.9023241 
H    -2.7117863   -7.1288369    1.4042575 
H    -2.4013492   -6.5194580    3.0584411 
H     0.0245830   -7.0880412    2.5026648 
H    -0.2111615   -7.3681060    0.7650424 
H     0.9310765   -6.1075166    1.3084913 
H    -4.3286132    4.2447633    4.8532612 
H    -5.3434018    4.5581391    3.4290687 
H    -4.9027762    2.8788662    3.8470852 
H    -3.4866967    6.2152180    2.7276955 
H    -2.3863109    5.7144474    4.0451566 
H    -1.8493675    5.6149971    2.3409458 
H    -4.2596008    2.8709929    1.3176625 
H    -2.8974243    3.8895854    0.7524766 
H    -4.4618837    4.6302122    1.1880209 
H    -1.7889626   -4.1228633    7.7941475 
H    -2.5313283   -4.5520457    6.2265368 
H    -0.9682816   -5.2564308    6.7022468 
H    -2.7212419   -1.9130406    6.0435003 
H    -1.2586322   -0.9191533    6.2560195 
H    -1.8624680   -1.8840033    7.6145602 
H     1.2061997   -3.7775091    6.4850708 
H     0.4756564   -2.8378866    7.8162113 
H     1.0212328   -2.0132363    6.3253612 
H     5.8705107    2.7016565   -3.1328212 
H     4.6777282    2.3896268   -1.8394703 
H     4.1380549    2.6172161   -3.5254002 
H     5.7683179   -0.5099265   -4.9078977 
H     4.5179870    0.7223908   -5.2789375 
H     6.2072318    1.2113964   -4.9648487 
H     7.2209820    0.7585561   -2.5809503 
H     6.5299209   -0.8908389   -2.5228760 
H     6.1257098    0.2878984   -1.2427797 
H     2.7659039    3.1251384   -5.4371925 
H     1.8417901    4.1558314   -4.3068266 
H     2.4457660    4.8396782   -5.8291519 
H     1.7079975    4.3382024   -7.8863975 
H     1.7784519    2.5540179   -7.8057654 
H     0.2822182    3.3801383   -8.3132493 
H    -0.5866574    4.8163773   -4.9049268 
H     0.0741806    5.6195362   -6.3617579 
H    -1.2583223    4.4379141   -6.5111632 
H     4.9936511   -3.9954569   -1.5409524 
H     4.3929317   -4.6596043   -3.0820744 
H     4.0941921   -5.5405347   -1.5730436 
H     2.5033787   -5.0595890   -0.0021407 
H     1.5479770   -3.5583073    0.0516005 
H     3.3029434   -3.4976408    0.3438596 
H     1.8883953   -4.4471475   -3.6726933 
H     0.7043300   -4.0866044   -2.3918905 
H     1.6552069   -5.5969591   -2.3250832 
H    -0.9720623   -3.6276581   -5.8830827 
H    -1.8395809   -2.5821951   -4.7322076 
H    -0.0638250   -2.7871123   -4.6030877 
H    -1.7181973   -0.8673372   -8.1422089 
H    -2.0669282   -2.5386942   -7.6507228 
H    -2.8262984   -1.1861226   -6.7690776 
H     0.8044011   -0.9800637   -7.8158565 
H     0.5450002   -2.7407421   -7.6193018 
H     1.4743701   -1.8318868   -6.3878248 
H    -1.9343559    2.9609806    7.3011018 
H    -3.1386913    4.2765286    7.0821526 
H    -3.3646037    2.6952804    6.2423197 
H     0.4205023   -7.1360921    4.9784747 
H     1.3014024   -5.8957990    4.0099464 
H     0.8419411   -5.5539455    5.7164833 
H     3.5948482   -3.4461423   -4.6146215 
H     5.3045550   -3.2066416   -5.1298056 
H     4.0937896   -1.8887830   -5.3578654 
H    -1.6785355    2.7216816   -7.6899991 
H    -1.3741170    1.7965473   -9.2066685 
H    -2.4353867    1.1086853   -7.9276529 
