213
Energy =
C    -3.0840533   -1.3325616    1.0282391 
C    -3.5850200   -0.6837138   -0.1433777 
C    -3.1148929   -1.0215457   -1.4319534 
H    -4.2081510    0.2132211   -0.0321814 
Pd   -1.3965580   -0.3987400   -0.0708307 
P    -0.0667916    0.8711733   -1.4887584 
P     0.3038939   -0.8845533    1.4442251 
H    -2.8072923   -2.3922787    0.9493113 
H    -2.6025633   -1.9908969   -1.5452135 
C    -3.9990900    0.0259276    5.0126002 
C    -3.6879970   -1.3199093    4.7707135 
C    -3.3761340   -1.7553447    3.4758280 
C    -3.3866094   -0.8511632    2.3903645 
C    -3.6924362    0.5066607    2.6511044 
C    -3.9980147    0.9386089    3.9445928 
H    -4.2432209    0.3626746    6.0254140 
H    -3.6962233   -2.0379778    5.5963660 
H    -3.1307434   -2.8079462    3.2962010 
H    -3.6722881    1.2361732    1.8336944 
H    -4.2343784    1.9927218    4.1232469 
C    -4.3676958    0.7029021   -5.1659099 
C    -3.1776972   -0.0359799   -5.0824402 
C    -2.7824167   -0.5899491   -3.8620570 
C    -3.5553284   -0.4024259   -2.6930925 
C    -4.7466234    0.3512681   -2.7896007 
C    -5.1514360    0.8881035   -4.0166900 
H    -4.6882825    1.1238136   -6.1243371 
H    -2.5566337   -0.1817081   -5.9720040 
H    -1.8486461   -1.1571188   -3.8032932 
H    -5.3807595    0.4898946   -1.9081210 
H    -6.0923075    1.4445773   -4.0790285 
O     4.7139467    0.7843948   -0.9440117 
O     3.8794110    2.1182498    1.8370363 
O     5.6604010   -1.3113268   -1.1770615 
O     3.3065643    4.3573587    1.9881437 
O     1.4214909    2.6586508    6.1261085 
O    -0.7440757   -6.2338036    3.9676808 
O     2.8651025   -1.8910387   -5.8727044 
O    -3.4138385    4.8974322   -4.4154205 
C     2.6058478    0.0559573    0.1299592 
C     2.1105539    1.4589720    0.2319373 
C     1.9284615   -1.1165641    0.6020204 
C     1.0174207    2.0030228   -0.5217247 
C     3.8625633   -0.1596430   -0.4269143 
C     2.7939352    2.3656283    1.0386096 
C     4.4371932   -1.4317125   -0.5705437 
C     2.4555734    3.7252513    1.1258268 
C     0.7105975    0.2709306    2.7948020 
C    -0.0628545   -2.4887350    2.2533424 
C     1.0033066   -0.0216417   -2.6606031 
C    -1.0932309    2.0194978   -2.4750179 
C     2.5109084   -2.3879596    0.4536730 
C     0.7033776    3.3731422   -0.4406595 
C     3.7753104   -2.5751397   -0.1485220 
C     1.4183631    4.2665121    0.3837444 
C     2.1504753    0.8132270    4.7099537 
C    -0.7500279   -4.8373686    1.9655347 
C     0.2344227    2.2952318    4.0753066 
C    -0.3977363   -3.8804047    4.2421478 
C     1.4073736   -2.0811788   -3.9375413 
C    -1.4629149    3.4428040   -4.4391428 
C     2.7565943   -0.0243644   -4.3666702 
C    -2.9409597    3.6304741   -2.4327924 
C     1.8231142    0.0060119    3.6052928 
C    -0.4325278   -3.5714916    1.4403281 
C    -0.0464183    1.4314247    3.0041949 
C    -0.1098025   -2.6393736    3.6472117 
C     0.7305760   -1.3673550   -2.9291285 
C    -0.7479556    2.4343301   -3.7621270 
C     2.0648820    0.6161032   -3.3274599 
C    -2.1800561    2.6259698   -1.8211806 
C     1.2706208    1.9032182    4.9801755 
C    -0.6124433   -4.9942606    3.3770362 
C     2.3243019   -1.3374799   -4.7303746 
C    -2.6103045    3.9707095   -3.7822654 
C     5.9621921    0.0948338   -1.1288998 
C     4.0592871    3.3114172    2.6238646 
C     3.4291039    0.4387128    5.5133723 
C    -1.2387108   -5.9262193    0.9706981 
C    -0.5313617    3.6347427    4.2180893 
C    -0.5118577   -3.9892968    5.7842356 
C     1.1179371   -3.6032855   -4.0498003 
C    -0.8819074    3.9035764   -5.8063713 
C     3.9818053    0.6505540   -5.0302290 
C    -3.9955317    4.4092232   -1.6067490 
C     4.0392834    1.6096334    6.3239314 
C     4.5367101   -0.0331563    4.5267908 
C     3.1208838   -0.7482806    6.4630713 
C    -2.1069665   -7.0305052    1.6240612 
C    -0.0193411   -6.5567011    0.2499803 
C    -2.1432461   -5.2638682   -0.1088537 
C     0.4832939    4.8068680    4.2898202 
C    -1.4401536    3.8813085    2.9898378 
C    -1.4382231    3.6478493    5.4756932 
C     0.6528505   -4.8232919    6.3766597 
C    -1.8688341   -4.6352583    6.1710939 
C    -0.4588269   -2.5903934    6.4449608 
C    -0.3155412   -3.8306786   -4.5935851 
C     1.2033267   -4.2108895   -2.6216027 
C     2.1291548   -4.4038710   -4.9068004 
C    -1.1933019    2.8336649   -6.8845759 
C    -1.3656180    5.2940243   -6.2885892 
C     0.6653833    4.0213506   -5.6737767 
C     4.3341310    1.9776912   -4.3174134 
C     5.2000194   -0.3035304   -4.9021972 
C     3.7326688    0.9804938   -6.5242559 
C    -4.0948471    3.8573187   -0.1644077 
C    -3.5354266    5.8893578   -1.5178443 
C    -5.4189625    4.3445844   -2.2136180 
C     0.8864712    2.0718321    7.3219895 
C     0.3876608   -7.1081080    3.8596510 
C     1.9799311   -1.8960190   -7.0015301 
C    -4.3323514    4.3670203   -5.3794835 
H     1.9857019   -3.2663904    0.8377480 
H    -0.1226079    3.7696398   -1.0357868 
H     4.2189127   -3.5678070   -0.2559112 
H     1.1679547    5.3285339    0.4340158 
H     2.4478565   -0.8589475    3.3679533 
H    -0.4839744   -3.4160557    0.3579024 
H    -0.8584332    1.6538720    2.3083585 
H     0.0804247   -1.7713195    4.2782460 
H    -0.0247149   -1.8724254   -2.3173222 
H     0.1160359    1.9759386   -4.2472375 
H     2.3395207    1.6296780   -3.0270691 
H    -2.4066285    2.3131658   -0.7977807 
H     6.6258240    0.2992959   -0.2642549 
H     6.4169359    0.4073587   -2.0805272 
H     5.1267034    3.5820607    2.6424006 
H     3.6574642    3.1389533    3.6416112 
H     4.1661318    2.5117660    5.7023318 
H     5.0358342    1.3045533    6.6881904 
H     3.4402778    1.8926623    7.1994696 
H     5.4707461   -0.2068482    5.0880831 
H     4.2821615   -0.9816412    4.0250010 
H     4.7297070    0.7159917    3.7424905 
H     2.3330451   -0.5002663    7.1935104 
H     2.7843968   -1.6293632    5.8888576 
H     4.0289186   -1.0326045    7.0241797 
H    -2.5740000   -7.6318999    0.8244021 
H    -1.5318289   -7.7167592    2.2591697 
H    -2.9111305   -6.5933842    2.2393658 
H     0.6455088   -7.0817138    0.9553274 
H    -0.3557704   -7.2869000   -0.5078242 
H     0.5772974   -5.7811617   -0.2596071 
H    -1.5993629   -4.5478749   -0.7480212 
H    -2.5464574   -6.0449789   -0.7756366 
H    -2.9968869   -4.7392489    0.3557845 
H     1.1194709    4.8317983    3.3891399 
H    -0.0605844    5.7664357    4.3528162 
H     1.1331957    4.7161726    5.1730634 
H    -1.9159087    4.8723885    3.0863404 
H    -0.8660988    3.8727545    2.0473376 
H    -2.2468834    3.1327135    2.9144698 
H    -0.8499422    3.7097877    6.4020741 
H    -2.0731478    2.7454845    5.5143749 
H    -2.0997573    4.5321454    5.4457659 
H     0.6237322   -4.7698128    7.4796706 
H     0.5823218   -5.8836052    6.0961792 
H     1.6296830   -4.4307529    6.0421895 
H    -1.9508093   -5.6614791    5.7851561 
H    -2.7100229   -4.0452691    5.7679647 
H    -1.9676535   -4.6621673    7.2709327 
H     0.5165540   -2.0970340    6.3006803 
H    -0.6139730   -2.7022865    7.5317808 
H    -1.2453133   -1.9203169    6.0579457 
H    -0.5301293   -4.9117791   -4.6660952 
H    -0.4438327   -3.3898172   -5.5973374 
H    -1.0747673   -3.3806667   -3.9294078 
H     2.2066508   -4.0599806   -2.1896982 
H     0.4704824   -3.7681259   -1.9272009 
H     1.0007524   -5.2945671   -2.6699494 
H     1.9514206   -5.4805641   -4.7361801 
H     3.1691255   -4.1761065   -4.6236604 
H     2.0207182   -4.2246470   -5.9855157 
H    -2.2802235    2.7057231   -7.0272701 
H    -0.7745000    1.8520864   -6.5988194 
H    -0.7532974    3.1273849   -7.8544162 
H    -0.7308648    5.6084543   -7.1357934 
H    -2.4038903    5.2935306   -6.6465812 
H    -1.2770940    6.0506068   -5.4924450 
H     1.1532221    3.0542536   -5.4693050 
H     1.0860548    4.4032170   -6.6199874 
H     0.9403409    4.7222154   -4.8662863 
H     4.5111153    1.8338246   -3.2380966 
H     3.5404864    2.7363362   -4.4390633 
H     5.2540495    2.3921442   -4.7644472 
H     6.1127099    0.1976971   -5.2715607 
H     5.0455986   -1.2231391   -5.4864402 
H     5.3591311   -0.5936985   -3.8495120 
H     2.8048358    1.5655751   -6.6523677 
H     3.6693649    0.0713837   -7.1384949 
H     4.5703919    1.5867018   -6.9126188 
H    -4.8289793    4.4553448    0.4016659 
H    -3.1339847    3.9152147    0.3757142 
H    -4.4414985    2.8076700   -0.1510298 
H    -3.4716459    6.3410916   -2.5201061 
H    -4.2537687    6.4734699   -0.9146524 
H    -2.5444471    5.9592826   -1.0343778 
H    -5.4882627    4.9127087   -3.1508401 
H    -6.1413269    4.7853709   -1.5039325 
H    -5.7215316    3.3004666   -2.4016445 
H     1.5317228    1.2571056    7.6972587 
H     0.8491594    2.8765112    8.0717955 
H    -0.1298158    1.6745707    7.1484159 
H     1.3283580   -6.5692050    4.0735702 
H     0.2366357   -7.9021666    4.6066075 
H     0.4536666   -7.5661358    2.8562231 
H     1.6673464   -0.8677155   -7.2624536 
H     1.0778522   -2.5048193   -6.8081059 
H     2.5459774   -2.3345444   -7.8368404 
H    -4.8364252    5.2327915   -5.8344052 
H    -3.8110329    3.7888069   -6.1627910 
H    -5.0785150    3.7130261   -4.8952546 
