213
Energy =
C     3.8217173   -0.7412707   -0.1800932 
C     3.2939022   -2.0268603   -0.4436618 
C     2.5305699   -2.2849193   -1.6254513 
H     3.3516884   -2.7922060    0.3425322 
Pd    1.5441878   -0.7206898   -0.3965682 
P    -0.6199295   -0.8807900   -1.2217039 
P     0.8140102    0.6856660    1.3527066 
H     3.9853262   -0.0800000   -1.0462065 
H     2.7934022   -1.7155999   -2.5294121 
C     6.2321775    0.1281312    3.2704648 
C     5.0453232   -0.6071355    3.4195147 
C     4.2421846   -0.8751338    2.3076564 
C     4.6033980   -0.4084802    1.0255986 
C     5.7785937    0.3625495    0.8947920 
C     6.5944754    0.6123224    2.0046137 
H     6.8670889    0.3295355    4.1394049 
H     4.7396862   -0.9648007    4.4082228 
H     3.3070162   -1.4259242    2.4349614 
H     6.0671184    0.7422788   -0.0917004 
H     7.5182367    1.1866663    1.8789295 
C     0.3923878   -5.9566660   -2.3402994 
C     0.5517985   -5.4829643   -1.0265650 
C     1.2494089   -4.2949194   -0.7880998 
C     1.8169346   -3.5580994   -1.8536835 
C     1.6476935   -4.0487154   -3.1655471 
C     0.9378115   -5.2312186   -3.4086872 
H    -0.1584105   -6.8838310   -2.5286765 
H     0.1223332   -6.0379914   -0.1854473 
H     1.3352258   -3.9170891    0.2361402 
H     2.0756701   -3.4916061   -4.0040422 
H     0.8071765   -5.5818419   -4.4374539 
O    -3.8848899    0.2725128    2.7815828 
O    -4.2541177    1.9232896    0.2387817 
O    -4.4019734   -1.9242269    3.2619929 
O    -3.8652921    4.1930259    0.0360208 
O    -2.3971568    4.0115277   -4.1727541 
O    -2.0279159   -3.6789094   -6.3216962 
O    -1.0652627   -2.7585399    5.9122376 
O     5.0325602    4.3528661    3.5722770 
C    -2.2986237   -0.1783550    0.9292431 
C    -1.9338886    1.2573436    0.7873107 
C    -1.7491905   -1.2566873    0.1635096 
C    -0.6188552    1.8014781    0.9930484 
C    -3.2103866   -0.5513757    1.9143117 
C    -2.9320992    2.1841999    0.5005443 
C    -3.5120408   -1.8875447    2.2158074 
C    -2.6955994    3.5600798    0.3694502 
C    -1.2005379    0.6672613   -2.0153996 
C    -1.0010210   -1.9934606   -2.6337288 
C     0.2245182   -0.3660631    2.7404425 
C     2.0903681    1.7964998    2.0659839 
C    -2.0011465   -2.5966992    0.5211334 
C    -0.3990324    3.1855286    0.8646757 
C    -2.8870759   -2.9412969    1.5633095 
C    -1.4278630    4.0949502    0.5383793 
C    -2.9207089    1.7779987   -3.3611618 
C    -2.3635663   -3.5984697   -3.8959496 
C    -0.6213480    2.7312244   -3.1911782 
C    -0.6196607   -2.2336618   -5.0444764 
C    -0.9555375   -0.6047315    4.8765364 
C     3.8233907    3.4921369    1.6830143 
C     0.2568269   -2.5498931    3.8783608 
C     3.1752809    2.8508694    4.0049147 
C    -2.5031219    0.7284987   -2.5257659 
C    -2.0169577   -2.9464409   -2.6931147 
C    -0.2599725    1.6325524   -2.3954149 
C    -0.2879635   -1.6814717   -3.8034011 
C    -0.5450157    0.1775175    3.7851226 
C     2.8735557    2.5800307    1.1962529 
C     0.6116256   -1.7097439    2.8034829 
C     2.2470702    1.9488903    3.4464100 
C    -1.9927556    2.8416789   -3.5623161 
C    -1.7059739   -3.1643586   -5.0826707 
C    -0.5945519   -1.9882171    4.8704325 
C     4.0200517    3.5442963    3.0984067 
C    -4.8859708   -0.5717564    3.3693179 
C    -4.8928301    3.2103705    0.2542140 
C    -4.2840783    1.6032495   -4.0881111 
C    -3.4253193   -4.7285185   -3.8131764 
C     0.4569997    3.7232457   -3.6868050 
C     0.1835513   -1.8214805   -6.3030076 
C    -1.6451856    0.0643838    6.0936783 
C     4.5386983    4.4765775    0.7239298 
C     0.8293976   -3.9953547    3.8940756 
C     3.1198325    3.0312019    5.5486211 
C    -4.5025093    2.5503838   -5.2927652 
C    -5.4585449    1.7617302   -3.0927694 
C    -4.3141508    0.1573390   -4.6712555 
C    -4.8443535   -4.1554740   -4.0693811 
C    -3.4450789   -5.3481598   -2.3873531 
C    -3.1043584   -5.8997379   -4.7761771 
C     0.3452662    3.9069101   -5.2238695 
C     0.3224961    5.0902420   -2.9715503 
C     1.8727953    3.1704582   -3.4039896 
C     1.3636050   -0.8874874   -5.9391875 
C    -0.7207756   -1.0316112   -7.2842302 
C     0.7794657   -3.0700787   -7.0044209 
C    -2.9275148   -0.6642788    6.5777423 
C    -2.0497513    1.5226765    5.7708646 
C    -0.6150478    0.0719859    7.2557701 
C     6.0792558    4.3141147    0.7264673 
C     4.0595449    4.2807886   -0.7298610 
C     4.1672654    5.9248443    1.1444812 
C     0.9625023   -4.6077381    5.3122232 
C    -0.0413921   -4.9082643    2.9929221 
C     2.2705141   -3.9907122    3.3140569 
C     1.6306837    3.2371248    5.9480447 
C     3.6469764    1.7454859    6.2359778 
C     3.8707206    4.2629734    6.1117486 
C    -3.1845230    4.8679087   -3.3341624 
C    -3.2480378   -3.2826995   -6.9617518 
C    -2.1961361   -3.5955802    5.6186631 
C     6.2077201    3.6718112    4.0307936 
H    -1.4983496   -3.4006658   -0.0238265 
H     0.6029381    3.5852890    1.0412570 
H    -3.0788979   -3.9819485    1.8332072 
H    -1.2363668    5.1659887    0.4408542 
H    -3.1916612   -0.0935316   -2.3088627 
H    -2.5762714   -3.1894195   -1.7914080 
H     0.7728608    1.5118888   -2.0562443 
H     0.5179746   -0.9463448   -3.7381898 
H    -0.8301190    1.2301854    3.7315466 
H     2.7269074    2.4696054    0.1183220 
H     1.2024287   -2.1116896    1.9739478 
H     1.6210962    1.3559633    4.1165393 
H    -5.8315493   -0.4761375    2.7974610 
H    -5.0141198   -0.3087210    4.4285204 
H    -5.3570844    3.3778658    1.2475881 
H    -5.6322647    3.2626072   -0.5574005 
H    -4.6816404    3.5930832   -4.9951587 
H    -5.3947354    2.2083249   -5.8467034 
H    -3.6422818    2.5344404   -5.9814956 
H    -6.4151438    1.5127202   -3.5857327 
H    -5.3352966    1.1060769   -2.2138069 
H    -5.5289463    2.8047335   -2.7369724 
H    -3.4486674   -0.0097532   -5.3357710 
H    -4.2934892   -0.6225248   -3.8926571 
H    -5.2386969    0.0149991   -5.2582022 
H    -5.6006134   -4.9545375   -3.9674046 
H    -5.0759808   -3.3678942   -3.3302676 
H    -4.9512493   -3.7147534   -5.0707169 
H    -3.8452163   -4.6558169   -1.6263297 
H    -4.1025405   -6.2343879   -2.3904773 
H    -2.4363530   -5.6657358   -2.0728173 
H    -2.0947645   -6.2963553   -4.5692368 
H    -3.8320524   -6.7142487   -4.6146778 
H    -3.1346902   -5.6168252   -5.8358601 
H    -0.6206554    4.3471018   -5.5098310 
H     1.1546652    4.5700710   -5.5781006 
H     0.4530439    2.9336973   -5.7360442 
H     1.1562374    5.7537616   -3.2633939 
H    -0.6177911    5.5935848   -3.2408221 
H     0.3520926    4.9611967   -1.8751203 
H     2.0666426    3.0472676   -2.3265432 
H     2.6260637    3.8760877   -3.7936444 
H     2.0330455    2.1955816   -3.8987821 
H     1.9280059   -0.6484192   -6.8564211 
H     1.0211568    0.0673273   -5.5014123 
H     2.0682399   -1.3626658   -5.2329487 
H    -0.1152963   -0.6491394   -8.1253268 
H    -1.1847155   -0.1674546   -6.7759248 
H    -1.5169856   -1.6577208   -7.7081664 
H     1.3520118   -2.7600122   -7.8967999 
H    -0.0089638   -3.7702842   -7.3154405 
H     1.4719693   -3.6025442   -6.3284009 
H    -3.5117643    0.0149323    7.2228382 
H    -2.6914081   -1.5605825    7.1664594 
H    -3.5654825   -0.9654071    5.7321575 
H    -1.1830226    2.1590451    5.5273259 
H    -2.7591908    1.5656709    4.9253127 
H    -2.5378363    1.9668043    6.6549393 
H    -1.0519671    0.5560410    8.1478683 
H     0.2951953    0.6285805    6.9742165 
H    -0.3289080   -0.9586645    7.5227578 
H     6.3672930    3.2630461    0.5553065 
H     6.5230463    4.6567790    1.6708969 
H     6.5143008    4.9236354   -0.0853135 
H     4.5600615    5.0163420   -1.3824172 
H     4.3014528    3.2749604   -1.1182185 
H     2.9723100    4.4419407   -0.8272688 
H     4.5101911    6.1410833    2.1677246 
H     4.6401024    6.6480468    0.4558270 
H     3.0734496    6.0729925    1.0990431 
H     1.5702025   -5.5270657    5.2422415 
H     0.0005527   -4.8827876    5.7631716 
H     1.4715184   -3.9110727    5.9988090 
H    -0.1009406   -4.5010735    1.9693709 
H    -1.0714148   -4.9954255    3.3745720 
H     0.3920756   -5.9231279    2.9407360 
H     2.9279174   -3.3148075    3.8873706 
H     2.3074791   -3.6914971    2.2538597 
H     2.6915843   -5.0084682    3.3726178 
H     1.5530366    3.3681167    7.0413701 
H     0.9981682    2.3787541    5.6751544 
H     1.2153852    4.1363542    5.4607754 
H     4.7043935    1.5590975    5.9791708 
H     3.5724404    1.8402375    7.3340710 
H     3.0648196    0.8582905    5.9290829 
H     4.9632934    4.1486098    6.1004164 
H     3.5725776    4.3937304    7.1670304 
H     3.6131253    5.1829955    5.5638452 
H    -3.4360814    5.7497302   -3.9420556 
H    -4.1120503    4.3697221   -2.9990940 
H    -2.6144102    5.1778037   -2.4393092 
H    -3.6221339   -2.3274291   -6.5550238 
H    -3.0280912   -3.1645846   -8.0356670 
H    -4.0210978   -4.0635317   -6.8464571 
H    -2.9256397   -3.0713973    4.9780677 
H    -2.6611806   -3.8430908    6.5849675 
H    -1.8819953   -4.5326209    5.1246136 
H     6.8353554    4.4318943    4.5197890 
H     5.9590612    2.8725211    4.7508129 
H     6.7562147    3.2235773    3.1843807 
