213
Energy =
C     3.2148760   -0.8507785    1.0022164 
C     2.8410927   -2.1683875    0.5897705 
C     2.4656528   -2.4484606   -0.7427705 
H     2.6653338   -2.9380783    1.3529196 
Pd    1.1697028   -0.7945028    0.1446450 
P    -0.9456105   -1.3269409   -0.6487738 
P     0.7100341    1.4605976    0.5049393 
H     3.7514041   -0.2195859    0.2814535 
H     2.7608179   -1.7209379   -1.5163831 
C     3.7567315    0.2367591    5.1358025 
C     2.8956260   -0.8203919    4.7973970 
C     2.7080309   -1.1733467    3.4581296 
C     3.3832823   -0.4836263    2.4218102 
C     4.2363106    0.5857105    2.7756969 
C     4.4247265    0.9350901    4.1195399 
H     3.9067160    0.5109266    6.1851389 
H     2.3657347   -1.3686006    5.5832630 
H     2.0133563   -1.9845421    3.2108397 
H     4.7600580    1.1377254    1.9875760 
H     5.1048458    1.7529436    4.3766464 
C     1.2910876   -6.2731144   -2.3169747 
C     1.9875498   -6.2046842   -1.1006295 
C     2.3616757   -4.9654971   -0.5694601 
C     2.0542475   -3.7674857   -1.2524078 
C     1.3580697   -3.8531337   -2.4799222 
C     0.9734182   -5.0905285   -3.0025885 
H     1.0069225   -7.2440801   -2.7355108 
H     2.2534728   -7.1237167   -0.5682870 
H     2.9302194   -4.9320863    0.3646759 
H     1.0965223   -2.9355340   -3.0149496 
H     0.4232858   -5.1329634   -3.9483600 
O    -3.6932703    2.7265503    1.3980091 
O    -4.0059173    2.2112877   -1.7558148 
O    -4.8110902    1.4354079    2.9624595 
O    -3.2514472    3.6529571   -3.3977508 
O    -2.0267706   -0.7366018   -6.4723933 
O    -2.0760431   -7.1408877    0.3068578 
O    -1.3700525    3.4938413    5.7246553 
O     5.7886907    4.5887847   -0.2263553 
C    -2.4246635    0.8838951    0.3327861 
C    -1.8139261    1.7815195   -0.6894576 
C    -2.2387612   -0.5372928    0.3978745 
C    -0.4287668    2.1419997   -0.7756259 
C    -3.3199536    1.4159068    1.2574417 
C    -2.6504867    2.3813466   -1.6250244 
C    -4.0059525    0.6352768    2.2012976 
C    -2.1930051    3.2548294   -2.6234670 
C    -1.3240466   -0.9075936   -2.3796650 
C    -1.2676102   -3.1163140   -0.4465711 
C    -0.0447945    2.0397127    2.0606455 
C     2.2712905    2.4072061    0.3302423 
C    -2.9506758   -1.3101325    1.3346816 
C     0.0222619    3.0167689   -1.7800009 
C    -3.8534041   -0.7407121    2.2566811 
C    -0.8505174    3.5848716   -2.7351057 
C    -0.4620220   -0.4556634   -4.6353192 
C    -2.3769468   -5.2030781   -1.0775080 
C    -2.9077088   -0.7623355   -4.2384904 
C    -1.1335059   -5.0372638    1.0832779 
C    -0.9323086    3.9222483    3.3653958 
C     3.9556620    3.9695268    1.1827857 
C    -0.8193824    1.6179987    4.3375375 
C     4.3140450    2.7991175   -0.9916259 
C    -0.2655482   -0.6277280   -3.2510132 
C    -2.0767002   -3.8538479   -1.3215147 
C    -2.6431123   -0.8958425   -2.8671562 
C    -0.7991301   -3.7175367    0.7291287 
C    -0.4178661    3.3862254    2.1711458 
C     2.7447359    3.2702174    1.3294877 
C    -0.2885318    1.1572792    3.1214854 
C     3.0827184    2.1504270   -0.7860810 
C    -1.7838553   -0.6636919   -5.1160858 
C    -1.8361990   -5.7977377    0.1039194 
C    -1.0263649    3.0268301    4.4715489 
C     4.6771785    3.7947679   -0.0356313 
C    -4.4444739    2.7836806    2.6256751 
C    -4.4217338    3.2428496   -2.6674173 
C     0.7657918   -0.0176466   -5.4799616 
C    -3.3361661   -5.9617735   -2.0278529 
C    -4.3634875   -0.6514243   -4.7530930 
C    -0.7777142   -5.4856624    2.5308093 
C    -1.3476617    5.4213487    3.3539245 
C     4.4816713    4.8521194    2.3436287 
C    -1.2005591    0.6133635    5.4538293 
C     5.1662741    2.3553696   -2.2128864 
C     0.4401646    0.4861254   -6.9074424 
C     1.7904237   -1.1776835   -5.5634707 
C     1.4370674    1.1817483   -4.7545722 
C    -2.6526107   -7.1850240   -2.6896891 
C    -3.8317002   -5.0441716   -3.1710113 
C    -4.5802828   -6.4255589   -1.2242199 
C    -5.3624887   -0.6059770   -3.5730470 
C    -4.5015306    0.6712095   -5.5547589 
C    -4.7643728   -1.8490247   -5.6519697 
C    -1.1736137   -4.3346798    3.5026039 
C     0.7477514   -5.7197294    2.6594880 
C    -1.5427307   -6.7354230    3.0332823 
C    -0.0866046    6.3150136    3.4837887 
C    -2.3752596    5.8065123    4.4474323 
C    -2.0161641    5.7574378    1.9889922 
C     5.9267372    4.4263653    2.7166833 
C     4.4596123    6.3552753    1.9651769 
C     3.6062900    4.6851038    3.6093156 
C    -2.6812265    0.8302314    5.8652032 
C    -1.0707052   -0.8426969    4.9476871 
C    -0.2829601    0.7581942    6.6950053 
C     5.0220461    0.8181896   -2.4093874 
C     4.6394201    3.0489278   -3.4956707 
C     6.6842821    2.6159626   -2.0447473 
C    -1.6782124   -1.9965004   -7.0635759 
C    -0.9509817   -8.0111054    0.1349669 
C    -0.3056349    4.1184848    6.4576493 
C     5.6422904    5.6763261   -1.1497747 
H    -2.8052337   -2.3924721    1.3564388 
H     1.0794950    3.2925409   -1.8157836 
H    -4.4025827   -1.3520322    2.9762520 
H    -0.4896504    4.2665543   -3.5089029 
H     0.7395586   -0.5284700   -2.8268855 
H    -2.4685584   -3.3639400   -2.2132647 
H    -3.4655691   -1.0011699   -2.1563365 
H    -0.1997624   -3.1106335    1.4178880 
H    -0.2971808    4.0349529    1.2995723 
H     2.1579099    3.3950480    2.2393488 
H    -0.0613160    0.0983047    2.9796419 
H     2.7453863    1.4054404   -1.5134996 
H    -5.3529971    3.3871291    2.4732635 
H    -3.8004998    3.1982551    3.4262251 
H    -4.8164121    4.1042879   -2.0912359 
H    -5.1685901    2.8367152   -3.3654503 
H     0.1554161   -0.3206323   -7.5971236 
H     1.3466291    0.9629901   -7.3207917 
H    -0.3697621    1.2327104   -6.8987250 
H     2.6691467   -0.8698239   -6.1578384 
H     2.1488172   -1.4730370   -4.5613633 
H     1.3526660   -2.0717426   -6.0402786 
H     0.7375710    2.0299241   -4.6700293 
H     1.7765911    0.9268922   -3.7372520 
H     2.3212043    1.5108728   -5.3272191 
H    -3.3145947   -7.6022422   -3.4692469 
H    -1.7015690   -6.8943588   -3.1692076 
H    -2.4556365   -7.9836935   -1.9615875 
H    -3.0034207   -4.6965534   -3.8146193 
H    -4.5344679   -5.6083257   -3.8076444 
H    -4.3690922   -4.1582666   -2.7897494 
H    -5.1053384   -5.5568825   -0.7888270 
H    -5.2847130   -6.9522555   -1.8929644 
H    -4.2939681   -7.1086197   -0.4100928 
H    -5.1384088    0.2154779   -2.8714068 
H    -6.3808495   -0.4516297   -3.9691267 
H    -5.3722691   -1.5534435   -3.0046862 
H    -5.5561029    0.8295326   -5.8435423 
H    -4.1689342    1.5314841   -4.9490802 
H    -3.8893370    0.6451640   -6.4690213 
H    -4.5642222   -2.8094039   -5.1457225 
H    -4.2326191   -1.8332176   -6.6136757 
H    -5.8461332   -1.7997658   -5.8697337 
H    -0.9747885   -4.6449565    4.5431445 
H    -0.6053710   -3.4073236    3.3249799 
H    -2.2483387   -4.0968021    3.4159252 
H     1.0066440   -5.9994965    3.6961399 
H     1.3106209   -4.8050500    2.4014897 
H     1.0946519   -6.5249189    1.9899202 
H    -1.3894644   -6.8211544    4.1235121 
H    -1.1879656   -7.6724976    2.5833115 
H    -2.6245789   -6.6505212    2.8426515 
H    -0.3711453    7.3818974    3.4511367 
H     0.6147186    6.1230365    2.6527778 
H     0.4519907    6.1352531    4.4288930 
H    -3.2372284    5.1184194    4.4550575 
H    -1.9510797    5.8172494    5.4600159 
H    -2.7525703    6.8220300    4.2346485 
H    -2.3983288    6.7922972    2.0178876 
H    -2.8543146    5.0773089    1.7681268 
H    -1.3091618    5.6994184    1.1445401 
H     6.6194837    4.5751401    1.8758259 
H     5.9566649    3.3616749    3.0062955 
H     6.2807238    5.0234463    3.5759877 
H     4.7026327    6.9646998    2.8538835 
H     5.2004834    6.5943033    1.1894622 
H     3.4592114    6.6580915    1.6080207 
H     3.5498845    3.6333558    3.9379632 
H     4.0502947    5.2727548    4.4310995 
H     2.5784842    5.0546505    3.4578061 
H    -2.9651846    0.0900461    6.6346590 
H    -3.3527921    0.6992923    4.9998853 
H    -2.8363207    1.8382450    6.2781745 
H    -0.0265997   -1.1073425    4.7102842 
H    -1.6885712   -1.0208104    4.0512448 
H    -1.4161450   -1.5325558    5.7368320 
H    -0.4843304    1.6882405    7.2449689 
H     0.7816607    0.7380258    6.4033471 
H    -0.4647140   -0.0815132    7.3897419 
H     5.6844986    0.4924500   -3.2292422 
H     3.9988558    0.5122925   -2.6859813 
H     5.3164858    0.2706419   -1.4964714 
H     4.7518008    4.1442141   -3.4446220 
H     5.1946169    2.6911467   -4.3813091 
H     3.5692795    2.8283284   -3.6470989 
H     6.9523363    3.6786583   -2.1061205 
H     7.2246193    2.0902556   -2.8514309 
H     7.0497743    2.2301401   -1.0783059 
H    -0.5971257   -2.2054468   -6.9658550 
H    -2.2452608   -2.8223633   -6.5950421 
H    -1.9427873   -1.9227118   -8.1289403 
H    -1.2867006   -9.0136607    0.4394762 
H    -0.6286611   -8.0308793   -0.9210324 
H    -0.0947362   -7.7003540    0.7587490 
H     0.6143902    3.5077468    6.4181905 
H    -0.6534538    4.2013561    7.4984348 
H    -0.0837292    5.1284938    6.0682722 
H     5.6826659    5.3286441   -2.1976703 
H     4.6915724    6.2142080   -0.9833553 
H     6.4894157    6.3541931   -0.9647253 
