213
Energy =
C     3.3038607   -0.6133173    0.9074890 
C     3.0140964   -1.9763472    0.5843289 
C     2.6268471   -2.3586723   -0.7194821 
H     2.9105597   -2.7076140    1.3965458 
Pd    1.2360475   -0.7579863    0.1179190 
P    -0.8501584   -1.5069527   -0.6031052 
P     0.6281142    1.4748845    0.3908692 
H     3.7800113    0.0087632    0.1367152 
H     2.8564282   -1.6611248   -1.5414371 
C     3.7829346    0.8003853    4.9503634 
C     2.9937563   -0.3332741    4.6935792 
C     2.8319377   -0.7960738    3.3848924 
C     3.4648981   -0.1446817    2.2984574 
C     4.2507833    0.9964352    2.5709485 
C     4.4085452    1.4607698    3.8833368 
H     3.9085908    1.1642075    5.9753822 
H     2.4966539   -0.8538876    5.5186497 
H     2.1864076   -1.6611644    3.1997538 
H     4.7396487    1.5198666    1.7424440 
H     5.0274349    2.3426178    4.0753506 
C     1.6330778   -6.3281860   -2.0381073 
C     1.2654358   -5.2091039   -2.8009806 
C     1.5988021   -3.9242937   -2.3633978 
C     2.2844680   -3.7266547   -1.1424300 
C     2.6411422   -4.8619748   -0.3808632 
C     2.3277220   -6.1484687   -0.8320421 
H     1.3895339   -7.3366978   -2.3877239 
H     0.7183368   -5.3385956   -3.7403248 
H     1.3022070   -3.0561500   -2.9600298 
H     3.1985051   -4.7421070    0.5536248 
H     2.6393216   -7.0175730   -0.2437264 
O    -3.8754966    2.4709130    1.1829597 
O    -4.1204674    1.7789568   -1.9178984 
O    -4.9276138    1.1985462    2.8064494 
O    -3.4697522    3.2301074   -3.5929376 
O    -1.9148161   -0.0036847   -6.2940021 
O    -1.4249349   -7.2654831    0.9837644 
O    -1.6616542    3.5552728    5.5065297 
O     5.8036085    4.4532811   -0.2412150 
C    -2.4704004    0.6613533    0.2374607 
C    -1.9093943    1.5492715   -0.8246780 
C    -2.1966971   -0.7397402    0.3868033 
C    -0.5560978    2.0173670   -0.9161321 
C    -3.4118133    1.1828331    1.1222658 
C    -2.7812255    2.0522692   -1.7862254 
C    -4.0593677    0.4127337    2.1018990 
C    -2.3864103    2.9329911   -2.8055631 
C    -1.2386884   -1.1770938   -2.3542620 
C    -1.0269088   -3.2933550   -0.2406099 
C    -0.1723325    2.0688065    1.9184881 
C     2.1272347    2.5114858    0.1725774 
C    -2.8677826   -1.5036981    1.3605757 
C    -0.1691434    2.8959537   -1.9440474 
C    -3.8181477   -0.9443183    2.2394666 
C    -1.0743836    3.3647708   -2.9215777 
C    -0.3670964   -0.4397880   -4.5248884 
C    -2.0478807   -5.5016002   -0.5654908 
C    -2.7779484   -1.0411631   -4.2631276 
C    -0.6091680   -5.0490979    1.4242906 
C    -1.2232960    3.9257982    3.1370883 
C     4.0951185    3.0319446   -1.2129604 
C    -0.9387319    1.6781547    4.2037845 
C     3.7649750    4.1425854    0.9970932 
C    -0.1751391   -0.7770170   -3.1793278 
C    -1.8253115   -4.1696524   -0.9785220 
C    -2.5206780   -1.3171117   -2.9035519 
C    -0.4446584   -3.7375807    0.9615992 
C    -0.6496462    3.3862849    1.9711580 
C     2.9068900    2.3154069   -0.9773371 
C    -0.3601860    1.2129861    3.0117469 
C     2.5490347    3.4470358    1.1304250 
C    -1.7043064   -0.4875852   -5.0203211 
C    -1.3507923   -5.9440474    0.5922349 
C    -1.2608128    3.0696014    4.2778504 
C     4.5585244    3.8649102   -0.1547266 
C    -4.6429991    2.5464545    2.3997461 
C    -4.6045482    2.7737290   -2.8341424 
C     0.8443350   -0.0839242   -5.4200220 
C    -3.1008254   -6.3064031   -1.3798856 
C    -4.1735742   -1.4299556   -4.8301265 
C    -0.1105626   -5.4442067    2.8363932 
C    -1.7658403    5.3828149    3.0619657 
C     4.7238788    2.8876292   -2.6278899 
C    -1.2478029    0.6908554    5.3571067 
C     4.1406257    5.2443361    2.0209286 
C     0.8000919    1.3953148   -5.8805927 
C     0.8685593   -1.0244759   -6.6539921 
C     2.1723925   -0.2947594   -4.6563970 
C    -3.5483454   -7.6613683   -0.7791370 
C    -2.5638058   -6.5429444   -2.8147144 
C    -4.3931106   -5.4421893   -1.4485654 
C    -4.2001697   -1.6268583   -6.3666347 
C    -4.5832241   -2.7984218   -4.2162021 
C    -5.2439862   -0.3908964   -4.4148572 
C     0.8829359   -6.6327646    2.8245602 
C    -1.3505119   -5.8128802    3.6946091 
C     0.6093889   -4.2618780    3.5254611 
C    -2.8422876    5.7169497    4.1253109 
C    -2.4341111    5.6114419    1.6748202 
C    -0.5931939    6.3909055    3.1766950 
C     5.2392968    1.4382222   -2.8195446 
C     3.5974555    3.1768274   -3.6629100 
C     5.8621695    3.8791908   -2.9708995 
C    -2.7469271    0.7963968    5.7441495 
C    -0.9841935   -0.7686763    4.9152661 
C    -0.3627612    0.9657095    6.6002174 
C     3.1542668    5.2587764    3.2117593 
C     5.5636932    5.0947056    2.6185710 
C     4.0466029    6.6077422    1.2840534 
C    -2.5619682    1.2756063   -6.3617074 
C    -0.5968627   -8.1718239    0.2427827 
C    -0.6674517    4.3001404    6.2256741 
C     6.8925629    3.5654914    0.0527010 
H    -2.6497455   -2.5708884    1.4467153 
H     0.8589387    3.2642208   -1.9767853 
H    -4.3361660   -1.5481432    2.9878848 
H    -0.7615991    4.0557380   -3.7078723 
H     0.8170567   -0.6952401   -2.7292540 
H    -2.3083406   -3.8064485   -1.8896459 
H    -3.3396546   -1.6464719   -2.2575879 
H     0.1343132   -3.0184324    1.5489973 
H    -0.5700742    4.0073928    1.0750393 
H     2.5642942    1.5933317   -1.7278052 
H    -0.0514399    0.1699298    2.9133976 
H     1.9285233    3.6118570    2.0109982 
H    -5.5855213    3.0824945    2.2072675 
H    -4.0354812    3.0436153    3.1813147 
H    -5.0290364    3.6236156   -2.2614097 
H    -5.3445390    2.3238525   -3.5101169 
H    -0.0049236    1.5688119   -6.6081938 
H     1.7544186    1.6635410   -6.3679484 
H     0.6533433    2.0702175   -5.0196926 
H     1.7476410   -0.7940752   -7.2821730 
H     0.9434630   -2.0793837   -6.3349270 
H    -0.0393483   -0.9048117   -7.2637093 
H     2.2520176    0.3607399   -3.7727076 
H     2.2962760   -1.3409824   -4.3254049 
H     3.0191911   -0.0530216   -5.3204521 
H    -4.4270541   -8.0125501   -1.3484647 
H    -2.7826619   -8.4454515   -0.8603106 
H    -3.8378853   -7.5657425    0.2786566 
H    -1.6453744   -7.1560435   -2.7977040 
H    -3.3183098   -7.0724402   -3.4233459 
H    -2.3229760   -5.5920230   -3.3219669 
H    -4.2240776   -4.4632696   -1.9206265 
H    -5.1623041   -5.9683216   -2.0406934 
H    -4.7961148   -5.2688866   -0.4354347 
H    -3.3776517   -2.2802441   -6.7018471 
H    -5.1553187   -2.1085740   -6.6404720 
H    -4.1342419   -0.6848300   -6.9274390 
H    -5.5192739   -3.1479749   -4.6844419 
H    -3.8058287   -3.5629878   -4.3891002 
H    -4.7714569   -2.7328855   -3.1324521 
H    -5.2464214   -0.2405028   -3.3216782 
H    -6.2470475   -0.7327251   -4.7259354 
H    -5.0589688    0.5839884   -4.8968103 
H     1.3195410   -6.7571080    3.8313560 
H     0.3848591   -7.5755700    2.5613037 
H     1.7095612   -6.4515559    2.1162820 
H    -1.0356801   -6.0824915    4.7189211 
H    -1.8888634   -6.6688578    3.2582250 
H    -2.0438926   -4.9555406    3.7623318 
H     0.9149531   -4.5648313    4.5412654 
H    -0.0385074   -3.3743182    3.6250517 
H     1.5239259   -3.9695078    2.9783868 
H    -3.3061475    6.6843998    3.8650257 
H    -2.4371133    5.8081588    5.1416675 
H    -3.6388422    4.9547586    4.1527723 
H    -1.7076311    5.5842131    0.8455154 
H    -3.2070775    4.8555969    1.4638800 
H    -2.9023399    6.6105936    1.6591980 
H    -0.9747686    7.4257688    3.1174107 
H     0.1260972    6.2465294    2.3517687 
H    -0.0440089    6.2834062    4.1265538 
H     4.4384251    0.6944674   -2.6620105 
H     6.0551024    1.2099449   -2.1113259 
H     5.6284285    1.3011629   -3.8440223 
H     3.9910601    3.0604127   -4.6877822 
H     2.7382703    2.4961553   -3.5625833 
H     3.2281752    4.2113885   -3.5511541 
H     6.8021938    3.6579861   -2.4462946 
H     6.0701734    3.8001691   -4.0526819 
H     5.5784243    4.9194684   -2.7485449 
H    -2.9785442    0.0648292    6.5389491 
H    -3.3926186    0.5765868    4.8772683 
H    -2.9920594    1.8029385    6.1147675 
H     0.0824381   -0.9491103    4.6998415 
H    -1.5720877   -1.0386881    4.0210492 
H    -1.2778202   -1.4515421    5.7309787 
H    -0.6518193    1.8960234    7.1091486 
H     0.7033544    1.0277659    6.3197978 
H    -0.4791243    0.1421575    7.3274160 
H     3.4418983    6.0643772    3.9087079 
H     3.1713565    4.3047982    3.7686980 
H     2.1177296    5.4550363    2.8957060 
H     6.3444284    5.3364628    1.8851234 
H     5.6744006    5.7928876    3.4667157 
H     5.7356472    4.0745431    3.0027256 
H     4.7542918    6.6423903    0.4393587 
H     4.2907699    7.4325736    1.9776142 
H     3.0256415    6.7730071    0.8965526 
H    -2.5432723    1.5730022   -7.4207408 
H    -3.6082102    1.2228626   -6.0136982 
H    -2.0266771    2.0232683   -5.7504510 
H    -0.9036183   -9.1863827    0.5381126 
H    -0.7293443   -8.0428689   -0.8460811 
H     0.4688290   -8.0198004    0.4881556 
H    -1.0385429    4.3955062    7.2573127 
H    -0.5268848    5.3084238    5.7964141 
H     0.3023107    3.7704708    6.2245141 
H     7.8168656    4.1383091   -0.1143529 
H     6.8524672    3.2245171    1.1032965 
H     6.8818894    2.6794140   -0.6079370 
