213
Energy =
C     3.7130055   -1.1590605    0.2095686 
C     3.1374006   -2.3727816   -0.2297439 
C     2.5013424   -2.4803468   -1.5076567 
H     3.0375918   -3.2012367    0.4839173 
Pd    1.4908482   -0.9249488   -0.2971384 
P    -0.5826224   -0.8429191   -1.3165817 
P     0.7400576    0.4046858    1.4823319 
H     4.0014508   -0.4316404   -0.5657511 
H     2.9138886   -1.8861754   -2.3361710 
C     5.5646450   -0.4434054    4.0223444 
C     4.6353350   -1.4890121    3.8871029 
C     4.0156945   -1.7247301    2.6578615 
C     4.3194062   -0.9298719    1.5302663 
C     5.2438802    0.1254284    1.6862457 
C     5.8583996    0.3705280    2.9192058 
H     6.0497600   -0.2599684    4.9864090 
H     4.3869572   -2.1183001    4.7484156 
H     3.2805278   -2.5267060    2.5752892 
H     5.4841589    0.7552934    0.8248424 
H     6.5664904    1.1994907    3.0171881 
C     0.1433978   -5.8988662   -2.6691666 
C     0.2151457   -5.5208915   -1.3182706 
C     0.9865474   -4.4180324   -0.9376452 
C     1.7134120   -3.6702430   -1.8938532 
C     1.6359439   -4.0674212   -3.2458148 
C     0.8598024   -5.1682074   -3.6280089 
H    -0.4676231   -6.7555925   -2.9710024 
H    -0.3406277   -6.0811500   -0.5582499 
H     0.9960215   -4.1090449    0.1129982 
H     2.1864363   -3.5011612   -4.0033688 
H     0.8139186   -5.4563912   -4.6820616 
O    -3.9016960   -0.4855404    2.8108561 
O    -4.3961157    1.5143809    0.6288187 
O    -4.4898473   -2.7195303    2.7745824 
O    -4.1350280    3.8079380    0.7669219 
O    -2.2380224    3.8703430   -4.4763767 
O    -1.2261780   -3.0874014   -6.8383648 
O    -1.4736257   -2.9557883    5.9378939 
O     4.7452851    4.4473730    3.3918479 
C    -2.3226957   -0.5475813    0.8957045 
C    -2.0235104    0.9080196    0.9947587 
C    -1.7834728   -1.4509009   -0.0798981 
C    -0.7335799    1.4937433    1.2373135 
C    -3.2349009   -1.1132463    1.7869712 
C    -3.0798328    1.8084614    0.8869258 
C    -3.5840884   -2.4715687    1.7728022 
C    -2.9232081    3.1999898    0.9650254 
C    -1.1657782    0.7941940   -1.9037434 
C    -0.8151055   -1.7325125   -2.9077653 
C     0.1694005   -0.6518332    2.8702059 
C     2.0291271    1.5359240    2.1263685 
C    -2.0925204   -2.8254561   -0.0422476 
C    -0.5916656    2.8897522    1.3242937 
C    -3.0068483   -3.3663282    0.8844169 
C    -1.6810999    3.7764184    1.1793888 
C    -0.6111745    2.9519681   -2.9268874 
C    -2.1405501   -2.9336328   -4.5888885 
C    -2.9104695    2.0029338   -3.1182379 
C    -0.0642588   -1.7170940   -5.2431995 
C    -0.0937423   -2.8590340    3.9225825 
C     3.7564309    3.2001064    1.6090129 
C    -0.9990450   -0.8030906    5.0194637 
C     3.1968375    2.6488404    3.9797987 
C    -0.2569219    1.8238626   -2.1537707 
C    -1.9272957   -2.4963075   -3.2635614 
C    -2.4996885    0.9219251   -2.3294898 
C     0.0858808   -1.3271076   -3.9082179 
C     0.3821351   -2.0355927    2.8799793 
C     2.8142018    2.2431094    1.1991072 
C    -0.5019094   -0.0499141    3.9483672 
C     2.2628643    1.7138999    3.4931048 
C    -1.9062899    2.9433205   -3.5075226 
C    -1.1423358   -2.6060318   -5.5461474 
C    -0.8650544   -2.2239967    4.9401006 
C     3.8710525    3.4502027    3.0124344 
C    -4.9199423   -1.4159518    3.2096704 
C    -5.1051357    2.7493098    0.8330133 
C     0.4312463    4.0992625   -3.0221414 
C    -3.4790590   -3.6756654   -4.8652673 
C    -4.4002841    2.1815312   -3.4967105 
C     0.8392222   -1.0968133   -6.3370684 
C     0.2606405   -4.3730430    3.8974768 
C     4.6371059    3.9251327    0.5581462 
C    -1.6129019   -0.0858345    6.2473741 
C     3.3998968    2.7302118    5.5172783 
C    -0.0513515    5.4032024   -3.7023744 
C     1.7010240    3.5949695   -3.7537802 
C     0.7960187    4.5022611   -1.5661909 
C    -4.6299377   -2.8967815   -4.1630393 
C    -3.4053718   -5.1016294   -4.2611752 
C    -3.8920305   -3.7633898   -6.3557015 
C    -4.6401376    2.0413093   -5.0216060 
C    -5.2801469    1.1200578   -2.7956042 
C    -4.8638729    3.5837027   -3.0184134 
C     1.6483015   -2.1563957   -7.1266406 
C     1.8567562   -0.1057133   -5.7245206 
C    -0.0673122   -0.2985131   -7.3130049 
C     1.6584935   -4.5851679    3.2583886 
C    -0.7667809   -5.1398269    3.0256806 
C     0.3704289   -5.0039063    5.3104897 
C     6.1444280    3.8026645    0.9079286 
C     4.4519439    3.3108970   -0.8500930 
C     4.2407331    5.4213799    0.4629714 
C    -1.4667436    1.4503133    6.1295545 
C    -3.1267352   -0.3796670    6.3833544 
C    -0.8589355   -0.5277045    7.5297436 
C     2.4316358    3.7832789    6.1193184 
C     3.0522767    1.3685772    6.1807104 
C     4.8670129    3.0367383    5.9107139 
C    -1.7108018    3.5565814   -5.7742539 
C    -0.8049486   -4.4449139   -7.0164445 
C    -2.6660197   -3.6834720    5.6075616 
C     4.2193695    5.6976483    3.8560435 
H    -1.6163047   -3.4992256   -0.7589512 
H     0.3961139    3.3115626    1.5270670 
H    -3.2527823   -4.4303028    0.8973502 
H    -1.5538192    4.8594879    1.2430175 
H     0.7578083    1.7390032   -1.7471613 
H    -2.6790642   -2.7299478   -2.5081467 
H    -3.2139588    0.1391288   -2.0637146 
H     0.9050767   -0.6607219   -3.6255142 
H     0.9206723   -2.4790658    2.0375354 
H     2.6840108    2.0271837    0.1350564 
H    -0.6534216    1.0310725    3.9329872 
H     1.7097110    1.1004493    4.2039090 
H    -5.8734925   -1.1578144    2.7055434 
H    -5.0172972   -1.4092043    4.3049957 
H    -5.5740458    2.7407290    1.8379127 
H    -5.8493433    2.8808583    0.0327594 
H    -0.1697652    5.3047736   -4.7908668 
H     0.7124698    6.1823753   -3.5288902 
H    -1.0059151    5.7546458   -3.2812300 
H     2.4747508    4.3832007   -3.7657447 
H     2.1324929    2.7051370   -3.2634737 
H     1.4740819    3.3244718   -4.7998007 
H    -0.0904370    4.9038170   -1.0473827 
H     1.1738975    3.6570430   -0.9695785 
H     1.5753175    5.2839992   -1.5798120 
H    -5.5930104   -3.3884974   -4.3837174 
H    -4.5265496   -2.8638481   -3.0658061 
H    -4.6802391   -1.8588470   -4.5358304 
H    -3.1853844   -5.0661900   -3.1794533 
H    -4.3658057   -5.6289502   -4.4023747 
H    -2.6126720   -5.7008441   -4.7421457 
H    -3.2887841   -4.4773695   -6.9325442 
H    -4.9389525   -4.1113083   -6.4048475 
H    -3.8313657   -2.7814680   -6.8517074 
H    -4.2036652    1.1017444   -5.4052262 
H    -5.7258987    2.0198575   -5.2240707 
H    -4.2158689    2.8873320   -5.5802110 
H    -6.3410464    1.3279815   -3.0180134 
H    -5.0623094    0.0999278   -3.1573058 
H    -5.1490128    1.1300261   -1.7005625 
H    -4.6826159    3.7072861   -1.9363396 
H    -5.9447435    3.7101659   -3.2100633 
H    -4.3203927    4.3809100   -3.5485100 
H     2.3898189   -1.6511839   -7.7705205 
H     2.1986364   -2.8297785   -6.4452070 
H     1.0011484   -2.7593010   -7.7781472 
H     2.4512526    0.3484517   -6.5354735 
H     2.5632558   -0.6080970   -5.0381921 
H     1.3605955    0.7130425   -5.1753620 
H     0.5487624    0.1782949   -8.0967364 
H    -0.6113358    0.4950229   -6.7702928 
H    -0.8009960   -0.9599940   -7.7996701 
H     1.9036420   -5.6605988    3.2667692 
H     2.4391184   -4.0547774    3.8297164 
H     1.7058322   -4.2571639    2.2070318 
H    -1.7969735   -5.0212005    3.3956735 
H    -0.7427287   -4.7636230    1.9882913 
H    -0.5273132   -6.2184691    3.0113641 
H     0.8239993   -6.0061769    5.2161666 
H    -0.5939608   -5.1243111    5.8186734 
H     1.0195196   -4.3941900    5.9615443 
H     6.4669274    2.7472041    0.8923404 
H     6.3663681    4.2202194    1.8997398 
H     6.7413738    4.3446084    0.1529809 
H     5.1356594    3.8131459   -1.5553682 
H     4.6933423    2.2328063   -0.8658449 
H     3.4288569    3.4431284   -1.2359300 
H     4.5112330    5.9746591    1.3725494 
H     4.7683333    5.8959779   -0.3837421 
H     3.1552009    5.5307698    0.2958552 
H    -1.8685852    1.9205730    7.0432238 
H    -2.0289261    1.8588135    5.2711317 
H    -0.4112211    1.7595101    6.0345686 
H    -3.3275132   -1.4448564    6.5615984 
H    -3.6545867   -0.0576685    5.4698825 
H    -3.5412736    0.1863535    7.2363908 
H     0.2151197   -0.2830189    7.4485381 
H    -0.9590929   -1.6094657    7.7017225 
H    -1.2662182    0.0086966    8.4054466 
H     2.5461995    3.8179392    7.2176862 
H     1.3846412    3.5160342    5.8917925 
H     2.6104649    4.7958493    5.7285892 
H     3.6140935    0.5400368    5.7190999 
H     3.3150218    1.4137755    7.2512662 
H     1.9772261    1.1279102    6.1252412 
H     5.5509470    2.3076660    5.4439437 
H     4.9721489    2.9529687    7.0065250 
H     5.1991546    4.0392901    5.6127794 
H    -2.0121857    4.3791269   -6.4399456 
H    -0.6080204    3.4791643   -5.7558183 
H    -2.1256881    2.6025261   -6.1482188 
H    -1.3375834   -5.1293930   -6.3320155 
H    -1.0392283   -4.7095309   -8.0584343 
H     0.2829753   -4.5463740   -6.8482586 
H    -2.4385819   -4.7482555    5.4184629 
H    -3.1640532   -3.2585186    4.7204825 
H    -3.3367211   -3.6205329    6.4801622 
H     4.2191224    5.7374489    4.9602054 
H     4.8851854    6.4901488    3.4767849 
H     3.1948322    5.8655727    3.4802016 
