213
Energy =
C     3.3053832   -1.0762616    0.1979755 
C     2.9234168   -2.0459852   -0.7819474 
C     2.4508088   -1.6588531   -2.0559418 
H     2.8194935   -3.0969111   -0.4816882 
Pd    1.1964512   -0.7312178   -0.3933872 
P    -0.9616012   -0.9329986   -1.2512232 
P     0.7305207    1.0192960    1.0726292 
H     3.7771643   -0.1479420   -0.1530091 
H     2.6792065   -0.6339470   -2.3909126 
C     4.0601629   -2.0606176    4.3253855 
C     4.6693507   -0.9450245    3.7334825 
C     4.4224314   -0.6306700    2.3906876 
C     3.5614356   -1.4310456    1.6083301 
C     2.9470756   -2.5498601    2.2216782 
C     3.1978528   -2.8636604    3.5602264 
H     4.2552204   -2.3048599    5.3747426 
H     5.3448125   -0.3164115    4.3218621 
H     4.8986404    0.2448676    1.9368060 
H     2.2461813   -3.1674407    1.6499919 
H     2.7134506   -3.7348313    4.0133510 
C     1.1618549   -4.2682808   -5.2200923 
C     0.8312779   -2.9045433   -5.2391752 
C     1.2609359   -2.0664557   -4.2065840 
C     2.0087949   -2.5756101   -3.1195681 
C     2.3273044   -3.9520039   -3.1094991 
C     1.9168752   -4.7847520   -4.1558115 
H     0.8427289   -4.9234473   -6.0371270 
H     0.2378132   -2.4931224   -6.0619959 
H     0.9926159   -1.0057596   -4.2241910 
H     2.9297330   -4.3694175   -2.2964024 
H     2.1989926   -5.8424940   -4.1460533 
O    -3.6686046    1.5382748    2.5861736 
O    -4.0973834    2.6193974   -0.3796933 
O    -4.7098109   -0.3817411    3.3547404 
O    -3.4456296    4.7284481   -1.0593779 
O    -2.2173122    3.4105155   -5.1683441 
O    -1.7808781   -6.6293248   -2.9522354 
O    -1.1911905    0.0866777    6.6560731 
O     6.0293779    3.7567905    1.7666004 
C    -2.4140728    0.4841197    0.7266825 
C    -1.8539632    1.7897404    0.2650018 
C    -2.2125315   -0.7856334    0.0883728 
C    -0.4822192    2.2038282    0.3437620 
C    -3.2810579    0.4722594    1.8172491 
C    -2.7401723    2.7493217   -0.2161069 
C    -3.9221981   -0.6880194    2.2806831 
C    -2.3448788    4.0307554   -0.6311119 
C    -1.4165764    0.2927033   -2.5231041 
C    -1.2212184   -2.6309910   -1.8862040 
C     0.0378110    0.7202565    2.7332276 
C     2.2732195    1.9783875    1.3364811 
C    -2.8768688   -1.9371880    0.5518440 
C    -0.0952816    3.4880184   -0.0798283 
C    -3.7503594   -1.9136662    1.6586626 
C    -1.0177134    4.4282948   -0.5894239 
C    -0.6123191    2.0635897   -4.0172044 
C    -0.8266594   -5.0150785   -1.4501290 
C    -3.0369267    1.4635729   -3.9500869 
C    -2.3755496   -4.2962424   -3.2713854 
C    -0.6370201   -0.8163276    4.5067438 
C     4.0372342    2.8761773    2.7873395 
C    -0.8488072    1.6586600    4.8241296 
C     4.1988603    3.1182384    0.3091703 
C    -0.3741568    1.0529010   -3.0775983 
C    -0.6117121   -3.6642256   -1.1493989 
C    -2.7294033    0.4951465   -2.9710690 
C    -2.0985272   -2.9561352   -2.9226948 
C    -0.1435186   -0.5836001    3.2127706 
C     2.7918889    2.2445191    2.6135050 
C    -0.3633450    1.8147626    3.5127711 
C     2.9848191    2.4135271    0.2083167 
C    -1.9725291    2.3154784   -4.3671840 
C    -1.6524110   -5.3065098   -2.5798864 
C    -0.8779093    0.3259343    5.3328605 
C     4.7583364    3.2423603    1.6128938 
C    -4.3702519    0.9683924    3.7078991 
C    -4.5673322    3.9610123   -0.5852373 
C     0.5724240    2.8193668   -4.6660562 
C    -0.2855764   -6.1181909   -0.5071926 
C    -4.4779215    1.4698139   -4.5366905 
C    -3.5084133   -4.5136214   -4.3149724 
C    -0.9434828   -2.2607205    4.9758321 
C     4.5222956    3.2482736    4.2119186 
C    -1.3126552    2.9404486    5.5755504 
C     4.7496740    3.7431953   -1.0038589 
C     0.4863372    2.6856942   -6.2095807 
C     1.9222036    2.2055212   -4.2270486 
C     0.5873713    4.3155893   -4.2617562 
C     0.5246094   -5.5074606    0.6597628 
C     0.6443920   -7.1302800   -1.2215383 
C    -1.5015837   -6.8692114    0.0989393 
C    -4.5890351    2.1265787   -5.9355737 
C    -4.9356332   -0.0049150   -4.7187141 
C    -5.4665813    2.1489186   -3.5571944 
C    -3.0548346   -3.9499166   -5.6859799 
C    -4.7530013   -3.7226148   -3.8179937 
C    -4.0002950   -5.9690803   -4.5062416 
C    -0.7837292   -3.2625227    3.8070674 
C    -2.4135799   -2.3476506    5.4652208 
C     0.0157816   -2.7120171    6.1071578 
C     4.4697382    4.7958325    4.3252502 
C     3.5959666    2.6434445    5.2925005 
C     5.9616764    2.7706991    4.5357540 
C    -2.0323213    3.8910068    4.5748958 
C    -2.3172640    2.6759675    6.7252999 
C    -0.0816405    3.7046370    6.1280219 
C     5.1703771    2.6131877   -1.9782370 
C     3.5933800    4.5696752   -1.6392163 
C     5.9257526    4.7368757   -0.8430385 
C    -2.7942931    4.5411346   -4.4986016 
C    -1.0406220   -7.0135607   -4.1184869 
C    -0.1243768    0.3107299    7.5899393 
C     7.0783006    2.8252631    1.4628365 
H    -2.7150535   -2.8896187    0.0414462 
H     0.9491482    3.7934292    0.0175592 
H    -4.2639900   -2.8127449    2.0064368 
H    -0.7041815    5.4264194   -0.9039887 
H     0.6416291    0.8610124   -2.7239876 
H     0.0308918   -3.3861641   -0.3084630 
H    -3.5327890   -0.1135233   -2.5462643 
H    -2.6011965   -2.1500111   -3.4639330 
H     0.1019094   -1.4182119    2.5523427 
H     2.2239659    1.9247005    3.4869636 
H    -0.2941492    2.8169149    3.0815890 
H     2.5667508    2.2160676   -0.7857890 
H    -5.2893915    1.5444903    3.8976774 
H    -3.6981944    0.9577335    4.5883974 
H    -4.9158150    4.3792599    0.3812373 
H    -5.3624145    3.9613410   -1.3433393 
H     0.5190452    1.6225976   -6.5079166 
H     1.3454580    3.1987191   -6.6778467 
H    -0.4419760    3.1314183   -6.5964965 
H     2.7481785    2.7485987   -4.7163095 
H     2.0790912    2.2833202   -3.1377988 
H     2.0057243    1.1426351   -4.5147055 
H    -0.2412360    4.8688573   -4.7253729 
H     0.5202855    4.4265919   -3.1656343 
H     1.5301398    4.7838287   -4.5966124 
H     0.8595890   -6.3156021    1.3319021 
H     1.4275759   -4.9840055    0.2965431 
H    -0.0717811   -4.8012194    1.2624520 
H     1.4467776   -6.6107798   -1.7730992 
H     1.1187398   -7.7871867   -0.4710508 
H     0.0875484   -7.7714504   -1.9179178 
H    -2.1021458   -7.3456007   -0.6917636 
H    -1.1533539   -7.6536602    0.7949027 
H    -2.1468433   -6.1716122    0.6623407 
H    -3.8214605    1.7362573   -6.6241871 
H    -5.5817622    1.8875242   -6.3559499 
H    -4.4972147    3.2206793   -5.9110932 
H    -5.9114829   -0.0279835   -5.2334215 
H    -4.2126151   -0.5761111   -5.3267937 
H    -5.0682134   -0.5254341   -3.7565273 
H    -5.4087919    1.6904391   -2.5551663 
H    -6.5011292    2.0497977   -3.9310642 
H    -5.2494177    3.2257657   -3.4567670 
H    -3.8660348   -4.0513473   -6.4287849 
H    -2.7860761   -2.8809262   -5.6187203 
H    -2.1722672   -4.4944733   -6.0656030 
H    -5.5771664   -3.8292799   -4.5449550 
H    -4.5528074   -2.6475700   -3.6995894 
H    -5.0970023   -4.1160035   -2.8455777 
H    -4.9231805   -5.9397839   -5.1120760 
H    -4.2332076   -6.4533351   -3.5454515 
H    -3.2834192   -6.6007973   -5.0491269 
H    -1.0747662   -4.2695145    4.1522676 
H     0.2594269   -3.3223450    3.4533449 
H    -1.4287733   -2.9996621    2.9508394 
H    -2.5837736   -1.6913256    6.3316720 
H    -3.1121867   -2.0552388    4.6631598 
H    -2.6463417   -3.3861891    5.7615194 
H    -0.1117112   -3.7938667    6.2914586 
H    -0.1940112   -2.1910424    7.0518197 
H     1.0685641   -2.5332413    5.8267053 
H     3.4422236    5.1651780    4.1593211 
H     5.1367920    5.2626523    3.5818525 
H     4.7931495    5.1145579    5.3326070 
H     3.9612778    2.9430186    6.2896339 
H     2.5582868    3.0015344    5.2038020 
H     3.5856632    1.5395444    5.2511566 
H     6.7186815    3.3508065    3.9913996 
H     6.1516396    2.9029007    5.6153386 
H     6.0946404    1.7001548    4.3032191 
H    -2.4439086    4.7532587    5.1271107 
H    -2.8557399    3.3827798    4.0486885 
H    -1.3491734    4.2961250    3.8097072 
H    -1.8597720    2.2002681    7.6026127 
H    -3.1524581    2.0345153    6.3978585 
H    -2.7387989    3.6420206    7.0537222 
H     0.5883289    4.0094626    5.3052898 
H     0.5054357    3.0928879    6.8325388 
H    -0.4075652    4.6178465    6.6570885 
H     5.5021251    3.0400809   -2.9412577 
H     4.3359039    1.9208728   -2.1874079 
H     6.0040622    2.0200943   -1.5628317 
H     3.2893382    5.3885612   -0.9638287 
H     3.9302427    5.0155879   -2.5913888 
H     2.7025722    3.9614802   -1.8592017 
H     5.7142073    5.5000286   -0.0780584 
H     6.0764411    5.2481001   -1.8102982 
H     6.8755060    4.2461457   -0.5879507 
H    -2.1910925    4.8320683   -3.6208415 
H    -2.8070853    5.3593824   -5.2338735 
H    -3.8249942    4.3339443   -4.1622337 
H    -1.3924566   -8.0191275   -4.3935785 
H    -1.2130134   -6.3144235   -4.9558026 
H     0.0418633   -7.0451488   -3.9033351 
H     0.0449928    1.3890683    7.7610808 
H     0.8156777   -0.1493203    7.2354927 
H    -0.4362204   -0.1597261    8.5346827 
H     8.0249448    3.3772467    1.5607214 
H     7.0699636    1.9755794    2.1698411 
H     6.9841308    2.4312467    0.4345258 
