213
Energy =
C    -3.5377718   -1.4416594   -0.2778384 
C    -3.7707252   -0.3211730   -1.1065141 
C    -3.1019217   -0.1688736   -2.3608909 
H    -4.3609467    0.5174127   -0.7153924 
Pd   -1.6081293   -0.2976400   -0.7144162 
P     0.1965277    0.8055995   -1.6638926 
P    -0.5815211   -0.4319313    1.3981654 
H    -3.1338819   -2.3443512   -0.7621610 
H    -2.8507667   -1.0827768   -2.9190292 
C    -5.3825539   -2.2963672    3.5100430 
C    -5.3772929   -0.9758415    3.0291660 
C    -4.7655022   -0.6691249    1.8105024 
C    -4.1473069   -1.6808979    1.0400854 
C    -4.1419978   -2.9984681    1.5494836 
C    -4.7509498   -3.3066633    2.7697105 
H    -5.8767866   -2.5339548    4.4576306 
H    -5.8576641   -0.1803612    3.6085051 
H    -4.7719362    0.3655470    1.4577339 
H    -3.6591612   -3.7895256    0.9696948 
H    -4.7343792   -4.3374574    3.1380758 
C    -3.3449287    3.4223300   -4.7316280 
C    -3.1190182    2.1790978   -5.3397733 
C    -3.0475143    1.0155315   -4.5652770 
C    -3.2026684    1.0668994   -3.1632457 
C    -3.4346341    2.3269115   -2.5637134 
C    -3.5073432    3.4895813   -3.3380470 
H    -3.3968423    4.3323507   -5.3382287 
H    -2.9988721    2.1131177   -6.4247205 
H    -2.8686954    0.0521171   -5.0506295 
H    -3.5278103    2.4024543   -1.4760555 
H    -3.6835959    4.4545112   -2.8503298 
O     3.8255465    2.4755045    1.0399005 
O     1.2733294    3.7008281    2.6451220 
O     5.2371544    0.8327617    1.8490763 
O     0.0102193    5.5176609    1.9600140 
O    -2.8616593    3.4900662    5.3209649 
O    -1.1832394   -5.8733823    3.8721180 
O     5.6309035   -1.7239046   -1.7440564 
O     0.6218712    1.9186611   -7.5376973 
C     1.7287419    1.1688709    1.1626965 
C     0.9054836    2.2967945    0.6370834 
C     1.2289976   -0.1244764    1.5308548 
C     0.2550208    2.3206047   -0.6415791 
C     3.0935459    1.3572678    1.3478878 
C     0.7428337    3.4463518    1.4082670 
C     3.9501658    0.3566652    1.8328456 
C    -0.0215327    4.5487168    0.9955993 
C    -1.2141061    0.8480242    2.5526651 
C    -0.8513370   -2.0618529    2.1950726 
C     1.8499647    0.0127881   -1.6088655 
C     0.1906546    1.2787506   -3.4357431 
C     2.0924828   -1.1205653    2.0157264 
C    -0.5274578    3.4243220   -1.0353737 
C     3.4801717   -0.9040985    2.1683440 
C    -0.6752907    4.5696489   -0.2271058 
C    -1.0502715    1.9619492    4.7413143 
C    -0.9834678   -4.4981253    1.9251197 
C    -2.7883441    2.6463542    3.0798761 
C    -1.3286331   -3.4539013    4.1656673 
C     3.2267688   -2.0155144   -1.5825890 
C     0.2942544    0.3476693   -5.7096410 
C     4.2472467    0.2157950   -2.0513309 
C     0.7814752    2.7582933   -5.2938359 
C    -0.5820886    1.0355346    3.7906834 
C    -0.8188085   -3.2120494    1.3854526 
C    -2.2672040    1.6977847    2.1850437 
C    -1.1459140   -2.1972650    3.5553749 
C     1.9779362   -1.3682610   -1.4573299 
C     0.0504186    0.2106684   -4.3311891 
C     2.9735881    0.7863503   -1.9459387 
C     0.6100303    2.5264980   -3.9197227 
C    -2.2335298    2.6789353    4.3971471 
C    -1.1417849   -4.5997967    3.3425139 
C     4.3606244   -1.1833055   -1.7763278 
C     0.5387884    1.6687094   -6.1828193 
C     5.1112758    2.2529907    1.6392101 
C     0.6332121    4.9072049    3.1027748 
C    -0.2247976    2.1265585    6.0499732 
C    -1.0611504   -5.7376806    0.9962169 
C    -3.8890196    3.6366033    2.6219756 
C    -1.7182048   -3.4664234    5.6695874 
C     3.2242525   -3.5686026   -1.5467804 
C     0.3666515   -0.9619055   -6.5457201 
C     5.4282831    1.0527092   -2.6026223 
C     1.3071834    4.1290562   -5.7854329 
C     1.2920667    2.0245958    5.7153705 
C    -0.5596807    0.9771205    7.0350464 
C    -0.4223061    3.4918617    6.7555499 
C     0.1337374   -6.7004176    1.2217457 
C    -1.0383561   -5.3175776   -0.4916165 
C    -2.3904060   -6.5026075    1.2397031 
C    -5.2351673    3.3698744    3.3423307 
C    -3.4291462    5.0945415    2.8901612 
C    -4.1466937    3.5112903    1.1022528 
C    -2.5246502   -4.7198059    6.0929463 
C    -2.6337821   -2.2487081    5.9804005 
C    -0.4395806   -3.3237312    6.5365356 
C     4.5315540   -4.2548681   -2.0138778 
C     2.1264761   -4.0685624   -2.5291413 
C     2.8844256   -4.0500136   -0.1142943 
C    -1.0478638   -1.5696609   -6.7176100 
C     1.0389584   -0.8173673   -7.9334200 
C     1.2454641   -1.9763615   -5.7555627 
C     6.6877783    1.0316663   -1.6991759 
C     5.7924132    0.4697808   -3.9952124 
C     5.0194654    2.5334340   -2.7867065 
C     0.2827159    4.8361418   -6.7093944 
C     1.5865547    5.0823665   -4.5994640 
C     2.6455103    3.9166590   -6.5422730 
C    -3.6692488    2.8092249    6.2927316 
C    -0.0030237   -6.3276526    4.5487888 
C     6.1424893   -1.9226067   -0.4172143 
C    -0.6233585    1.9309111   -8.2442683 
H     1.6779941   -2.0930489    2.2958534 
H    -1.0528220    3.3919958   -1.9927110 
H     4.1467612   -1.6858249    2.5395374 
H    -1.2761664    5.4252314   -0.5436573 
H     0.3145762    0.4519093    4.0133049 
H    -0.6810991   -3.0857877    0.3080918 
H    -2.6648289    1.6148098    1.1701693 
H    -1.2574029   -1.2979725    4.1612178 
H     1.0784894   -1.9567937   -1.2455761 
H    -0.1986462   -0.7772943   -3.9275509 
H     2.8364548    1.8527512   -2.1348013 
H     0.8223248    3.3283239   -3.2128664 
H     5.1585898    2.7725575    2.6177390 
H     5.9004960    2.5944697    0.9535814 
H     1.3902639    5.5897340    3.5201336 
H    -0.1447646    4.6458858    3.8469331 
H     1.5854095    1.0163624    5.3777439 
H     1.8779655    2.2414815    6.6249959 
H     1.5828123    2.7382275    4.9278366 
H     0.0277641    1.0884876    7.9638285 
H    -1.6280398    0.9592267    7.3065065 
H    -0.3094741   -0.0013644    6.5907354 
H    -0.2936836    4.3331721    6.0540309 
H    -1.4074854    3.6011866    7.2275524 
H     0.3390726    3.5919451    7.5486885 
H     0.0514219   -7.2343964    2.1782434 
H     0.1534710   -7.4602066    0.4202287 
H     1.0928617   -6.1558042    1.1990220 
H    -0.0879607   -4.8360909   -0.7740046 
H    -1.1539986   -6.2145992   -1.1231686 
H    -1.8663650   -4.6291651   -0.7404282 
H    -3.2617434   -5.8696351    0.9964724 
H    -2.4305713   -7.3913133    0.5849726 
H    -2.4768662   -6.8327988    2.2850554 
H    -5.1866034    3.6295329    4.4087647 
H    -6.0291108    3.9876136    2.8862391 
H    -5.5327265    2.3104810    3.2476235 
H    -4.2048198    5.7994055    2.5409051 
H    -3.2617191    5.2665727    3.9638246 
H    -2.4945555    5.3177573    2.3485319 
H    -4.5738201    2.5291426    0.8305790 
H    -3.2229520    3.6653369    0.5191137 
H    -4.8766910    4.2783364    0.7928012 
H    -2.9237838   -4.5576556    7.1095251 
H    -3.3770045   -4.8870741    5.4130856 
H    -1.9270249   -5.6403594    6.1148973 
H    -3.5180956   -2.2409188    5.3234112 
H    -2.1190346   -1.2815898    5.8678048 
H    -2.9741834   -2.3118903    7.0282038 
H     0.2585496   -4.1639970    6.3902245 
H    -0.7069500   -3.2849452    7.6077505 
H     0.0996252   -2.3939927    6.2826059 
H     4.8777614   -3.8561596   -2.9801448 
H     4.3279292   -5.3337920   -2.1369062 
H     5.3525393   -4.1613544   -1.2893925 
H     1.1265818   -3.6656954   -2.3002982 
H     2.3778830   -3.7817170   -3.5640864 
H     2.0594204   -5.1696702   -2.4828543 
H     2.8492190   -5.1534620   -0.0823695 
H     1.9076711   -3.6649385    0.2253500 
H     3.6455364   -3.7108852    0.6095427 
H    -1.7212711   -0.8852076   -7.2625413 
H    -1.5087470   -1.7930964   -5.7385240 
H    -0.9925491   -2.5147073   -7.2866103 
H     1.2360622   -1.8294507   -8.3288709 
H     0.4088049   -0.3006644   -8.6703680 
H     1.9988145   -0.2811975   -7.8644694 
H     0.8030643   -2.2576323   -4.7865176 
H     1.3616761   -2.9026216   -6.3449818 
H     2.2488953   -1.5592655   -5.5606832 
H     7.2066688    0.0645629   -1.7454167 
H     6.4292422    1.2394904   -0.6478035 
H     7.3953128    1.8089711   -2.0376806 
H     6.6198701    1.0481046   -4.4446708 
H     4.9247674    0.5202989   -4.6769558 
H     6.1111752   -0.5816234   -3.9053224 
H     4.7254942    2.9970865   -1.8276389 
H     4.1846595    2.6492635   -3.4997274 
H     5.8765542    3.0987784   -3.1904755 
H     0.6133557    5.8712417   -6.9072988 
H    -0.7127942    4.8802199   -6.2327487 
H     0.1923284    4.3269858   -7.6788372 
H     2.3364924    4.6700247   -3.9015786 
H     1.9874131    6.0331796   -4.9901723 
H     0.6702011    5.3169405   -4.0287132 
H     3.3962569    3.4532583   -5.8774312 
H     3.0435339    4.8896291   -6.8822735 
H     2.5069479    3.2688091   -7.4209783 
H    -3.0493360    2.3355329    7.0750391 
H    -4.3093872    3.5755952    6.7555310 
H    -4.2975649    2.0363283    5.8138153 
H     0.0518048   -5.9307519    5.5782058 
H    -0.0736997   -7.4253082    4.5932073 
H     0.9089131   -6.0356697    3.9975338 
H     7.1670422   -2.3068236   -0.5336910 
H     5.5354429   -2.6603798    0.1399902 
H     6.1580944   -0.9756065    0.1505828 
H    -1.2355354    2.8014839   -7.9451845 
H    -0.3742635    2.0084977   -9.3131575 
H    -1.2031830    1.0072159   -8.0668387 
