213
Energy =
C     3.7978498   -0.8100972   -0.0675709 
C     3.2599665   -2.0753965   -0.4003537 
C     2.5371747   -2.2760637   -1.6186738 
H     3.2732216   -2.8697257    0.3587315 
Pd    1.5324215   -0.7432522   -0.3720561 
P    -0.5964625   -0.8367437   -1.2976811 
P     0.7513645    0.6076160    1.3964566 
H     4.0080359   -0.1197365   -0.9003596 
H     2.8463722   -1.6858356   -2.4939969 
C     6.0851905   -0.1338679    3.5081124 
C     6.5160984    0.3802467    2.2759523 
C     5.7406819    0.1948722    1.1251753 
C     4.5373305   -0.5409627    1.1804570 
C     4.1069328   -1.0373865    2.4294429 
C     4.8701040   -0.8333780    3.5823564 
H     6.6889072    0.0170061    4.4089431 
H     7.4620576    0.9277851    2.2089176 
H     6.0827246    0.5978425    0.1654315 
H     3.1496993   -1.5601518    2.4984112 
H     4.5110715   -1.2131187    4.5444834 
C     0.3360756   -5.8730414   -2.5074646 
C     0.9693918   -5.1545821   -3.5308249 
C     1.6936564   -3.9926612   -3.2365626 
C     1.8038736   -3.5255090   -1.9101694 
C     1.1606773   -4.2616742   -0.8880027 
C     0.4372345   -5.4216261   -1.1807299 
H    -0.2356319   -6.7770798   -2.7398063 
H     0.8974199   -5.4976907   -4.5669503 
H     2.1782546   -3.4348477   -4.0440841 
H     1.2028768   -3.8998615    0.1447052 
H    -0.0550258   -5.9730378   -0.3723750 
O    -4.0038317    0.1977858    2.6243656 
O    -4.2602246    1.9668498    0.1763275 
O    -4.5826639   -2.0078594    2.9729133 
O    -3.8339311    4.2352094    0.0788318 
O    -2.0665809    4.2667842   -4.0555888 
O    -1.7014880   -3.5589698   -6.5260459 
O    -1.3727747   -2.9602800    5.7491268 
O     4.9453167    4.0989983    3.9248389 
C    -2.3528085   -0.1938589    0.8152521 
C    -1.9641005    1.2414953    0.7538655 
C    -1.7939277   -1.2454863    0.0190180 
C    -0.6494805    1.7578727    1.0233775 
C    -3.3099568   -0.5962638    1.7445380 
C    -2.9411749    2.1949816    0.4815319 
C    -3.6499490   -1.9388442    1.9664891 
C    -2.6818327    3.5717742    0.4153770 
C    -1.0959623    0.7614328   -2.0467821 
C    -0.9351581   -1.8853864   -2.7719014 
C     0.0869994   -0.4821909    2.7195122 
C     2.0148072    1.6686816    2.2028219 
C    -2.0890349   -2.5956610    0.2967503 
C    -0.4060055    3.1422219    0.9586048 
C    -3.0220699   -2.9724626    1.2852617 
C    -1.4116327    4.0798236    0.6397230 
C    -0.3843669    2.8535086   -3.0953252 
C    -2.3431778   -3.3139513   -4.1891415 
C    -2.7185169    2.0193645   -3.3849847 
C    -0.4551046   -2.0156735   -5.1746226 
C    -1.1840985   -0.7740768    4.7961150 
C     3.8016924    3.3335465    1.9555438 
C     0.0348399   -2.7047302    3.7786159 
C     3.0359793    2.6300526    4.2230746 
C    -0.1017212    1.7014244   -2.3453532 
C    -2.0135689   -2.7551154   -2.9345076 
C    -2.3754890    0.9066114   -2.5974451 
C    -0.1822822   -1.5123528   -3.8996558 
C    -0.7157644    0.0382448    3.7509389 
C     2.8528565    2.4628293    1.3960780 
C     0.4479806   -1.8340828    2.7498567 
C     2.1133235    1.7702809    3.5933695 
C    -1.7368601    3.0480965   -3.4995164 
C    -1.4944248   -2.9923424   -5.2837742 
C    -0.8469463   -2.1629311    4.7551151 
C     3.9361109    3.3327959    3.3791140 
C    -5.0461297   -0.6525414    3.1249579 
C    -4.8791277    3.2617713    0.2486937 
C     0.7556507    3.8192947   -3.4966398 
C    -3.6341921   -4.1800919   -4.2480443 
C    -4.0708714    1.9628317   -4.1506125 
C     0.2763925   -1.4266178   -6.4061203 
C    -1.9115678   -0.1351399    6.0074295 
C     4.5820904    4.3322512    1.0642864 
C     0.5813062   -4.1599977    3.7651959 
C     2.9173639    2.7584179    5.7683865 
C     0.6974338    4.1210440   -5.0178205 
C     2.1334968    3.1720070   -3.2239442 
C     0.6702900    5.1359038   -2.6855924 
C    -3.3390668   -5.5844565   -3.6604149 
C    -4.2567387   -4.3164591   -5.6606162 
C    -4.7357408   -3.5169011   -3.3697708 
C    -4.1979971    0.5419983   -4.7768017 
C    -5.2571397    2.1762826   -3.1796994 
C    -4.1847630    2.9600931   -5.3293144 
C    -0.7808087   -0.7659960   -7.3314777 
C     1.0697816   -2.4948958   -7.1998435 
C     1.2798744   -0.3258412   -5.9856567 
C    -3.2243030   -0.8568111    6.4135912 
C    -2.2785540    1.3404269    5.7202359 
C    -0.9295807   -0.1863937    7.2094478 
C     6.1177045    4.1406715    1.1370272 
C     4.1731784    4.1896971   -0.4167154 
C     4.2159358    5.7733826    1.5129427 
C     0.6509019   -4.8221429    5.1653146 
C    -0.2723573   -5.0241575    2.8018218 
C     2.0428230   -4.1628183    3.2382822 
C     3.3857586    1.4378264    6.4316521 
C     3.6701498    3.9520567    6.4061452 
C     1.4171607    2.9856059    6.1109907 
C    -2.8348906    5.1197357   -3.1963558 
C    -1.2229797   -4.8983386   -6.6930873 
C    -2.5046095   -3.7665417    5.3822124 
C     6.0832832    3.3722772    4.4067831 
H    -1.5832504   -3.3811935   -0.2721019 
H     0.5957769    3.5185155    1.1819561 
H    -3.2465753   -4.0205976    1.4943537 
H    -1.2019208    5.1507938    0.5911330 
H     0.9119671    1.5170577   -1.9776484 
H    -2.6549530   -2.9763085   -2.0816246 
H    -3.1066938    0.1069701   -2.4466161 
H     0.6082320   -0.7690793   -3.7707704 
H    -0.9808474    1.0970894    3.7236475 
H     2.7511171    2.3933922    0.3095606 
H     1.0662562   -2.2170117    1.9315842 
H     1.4458228    1.1695545    4.2144502 
H    -5.9626660   -0.5099352    2.5167355 
H    -5.2173891   -0.4382512    4.1889842 
H    -5.3426640    3.3905992    1.2482896 
H    -5.6145813    3.3633749   -0.5613693 
H     0.7706479    3.1845194   -5.5991568 
H     1.5498148    4.7646019   -5.2999611 
H    -0.2358009    4.6314966   -5.2944790 
H     2.9318738    3.8605271   -3.5491322 
H     2.2967283    2.9650699   -2.1542456 
H     2.2520514    2.2258600   -3.7818767 
H    -0.2352346    5.7058430   -2.9416128 
H     0.6595293    4.9269307   -1.6010931 
H     1.5447320    5.7745049   -2.9051688 
H    -4.2595531   -6.1951490   -3.6455548 
H    -2.5824132   -6.1235330   -4.2555023 
H    -2.9563445   -5.5066445   -2.6273917 
H    -3.6884760   -4.9808366   -6.3249237 
H    -5.2676394   -4.7484485   -5.5564957 
H    -4.3499944   -3.3357858   -6.1550849 
H    -4.9339284   -2.4822667   -3.6993339 
H    -5.6719712   -4.0927444   -3.4668016 
H    -4.4813831   -3.4954153   -2.2968394 
H    -4.2612053   -0.2536023   -4.0171678 
H    -5.1162127    0.4893399   -5.3874531 
H    -3.3350652    0.3174397   -5.4265661 
H    -6.2153779    2.0243869   -3.7075969 
H    -5.2097198    1.4746394   -2.3291871 
H    -5.2553409    3.2053891   -2.7797401 
H    -4.3047864    4.0027641   -5.0034901 
H    -5.0767430    2.6950538   -5.9240426 
H    -3.3035506    2.9077311   -5.9893962 
H    -0.2863916   -0.3309789   -8.2186256 
H    -1.5243278   -1.5033640   -7.6715071 
H    -1.3044482    0.0470472   -6.7982120 
H     1.7048236   -1.9992614   -7.9552690 
H     0.4007653   -3.1844804   -7.7325456 
H     1.7309962   -3.0794863   -6.5352484 
H     1.7483041    0.0998371   -6.8893911 
H     2.0913609   -0.7242711   -5.3489222 
H     0.7861486    0.5010436   -5.4453714 
H    -3.8229760   -0.1901199    7.0585069 
H    -3.0274032   -1.7773218    6.9788208 
H    -3.8322595   -1.1160072    5.5327739 
H    -1.3922360    1.9692028    5.5345227 
H    -2.9521349    1.4249862    4.8489650 
H    -2.7948962    1.7623828    6.5991351 
H    -1.3940937    0.2745589    8.0998456 
H     0.0006374    0.3627239    6.9842492 
H    -0.6719087   -1.2306998    7.4513242 
H     6.3951675    3.0888863    0.9535505 
H     6.5212482    4.4522800    2.1098134 
H     6.6019712    4.7613525    0.3624418 
H     4.7189285    4.9346414   -1.0204772 
H     4.4175639    3.1912788   -0.8222473 
H     3.0956654    4.3738675   -0.5640099 
H     4.5107355    5.9497300    2.5587233 
H     4.7360961    6.5089918    0.8732629 
H     3.1286819    5.9444767    1.4179517 
H     1.2425312   -5.7511306    5.0858790 
H    -0.3319360   -5.0913774    5.5724710 
H     1.1485841   -4.1593923    5.8926609 
H    -0.2890925   -4.5782307    1.7929292 
H    -1.3166017   -5.1060556    3.1437910 
H     0.1455682   -6.0441241    2.7270557 
H     2.6899509   -3.5170883    3.8563865 
H     2.1242064   -3.8312075    2.1902494 
H     2.4443308   -5.1893302    3.2792913 
H     3.2659746    1.4965138    7.5282362 
H     4.4489427    1.2356677    6.2135186 
H     2.7980079    0.5756659    6.0691817 
H     3.4568578    4.8960975    5.8805824 
H     3.3294532    4.0534534    7.4517440 
H     4.7594310    3.8125598    6.4371483 
H     1.0434298    3.9107212    5.6387582 
H     1.2950016    3.0805032    7.2039638 
H     0.7783377    2.1523873    5.7809343 
H    -3.0383901    6.0353009   -3.7713864 
H    -3.7872166    4.6476456   -2.8966084 
H    -2.2686308    5.3702385   -2.2803954 
H    -1.5586557   -5.2255968   -7.6884974 
H    -0.1190941   -4.9326968   -6.6499454 
H    -1.6316727   -5.5772697   -5.9239973 
H    -2.1854001   -4.6986102    4.8820544 
H    -3.1918122   -3.2129929    4.7199310 
H    -3.0208674   -4.0263026    6.3188907 
H     6.6535678    2.9361780    3.5685122 
H     6.7098907    4.0993045    4.9448890 
H     5.7853170    2.5576086    5.0899541 
