213
Energy =
C    -3.0886122   -1.1215947    1.1509119 
C    -3.6322707   -0.4689557    0.0005473 
C    -3.2433564   -0.8364770   -1.3066336 
H    -4.2218214    0.4479913    0.1313649 
Pd   -1.4327584   -0.2574800   -0.0508617 
P    -0.1324327    0.9567284   -1.5466956 
P     0.3333498   -0.8430771    1.3515739 
H    -2.8507727   -2.1904603    1.0691967 
H    -2.7623689   -1.8200832   -1.4339309 
C    -3.7042027    0.2886754    5.1744905 
C    -3.4310253   -1.0639774    4.9246274 
C    -3.2224393   -1.5153440    3.6148064 
C    -3.2945477   -0.6206374    2.5234655 
C    -3.5626436    0.7436729    2.7917422 
C    -3.7695175    1.1909901    4.0996779 
H    -3.8688569    0.6389454    6.1986831 
H    -3.3896068   -1.7747658    5.7557668 
H    -3.0100216   -2.5736219    3.4276246 
H    -3.5919721    1.4660775    1.9678220 
H    -3.9786052    2.2496756    4.2850444 
C    -4.6843098    0.8560223   -4.9844382 
C    -3.4746643    0.1451360   -4.9514574 
C    -3.0129458   -0.3948834   -3.7483925 
C    -3.7413360   -0.2233309   -2.5490612 
C    -4.9520267    0.5034282   -2.5942734 
C    -5.4198433    1.0320752   -3.8023923 
H    -5.0570665    1.2614469   -5.9306344 
H    -2.8892592    0.0112045   -5.8669806 
H    -2.0653367   -0.9408804   -3.7271608 
H    -5.5524141    0.6226150   -1.6873879 
H    -6.3720624    1.5722914   -3.8240746 
O     4.6400854    0.7246488   -1.2762046 
O     3.9946607    2.0347097    1.6092180 
O     5.5046227   -1.3934333   -1.5959011 
O     3.4964520    4.2862904    1.8261390 
O     1.8676545    2.5008110    6.0614881 
O    -0.9816169   -6.1946289    3.7574617 
O     3.2411647   -2.3043985   -5.2695292 
O    -3.5593765    4.9911787   -4.3666681 
C     2.5843227    0.0442563   -0.0756128 
C     2.1367068    1.4587585    0.0747560 
C     1.8998745   -1.1137306    0.4176353 
C     1.0277045    2.0475836   -0.6198645 
C     3.7954150   -0.2000721   -0.7149382 
C     2.8821734    2.3290466    0.8656543 
C     4.3172653   -1.4875669   -0.9120319 
C     2.5883855    3.6959296    0.9922023 
C     0.8619015    0.2478383    2.7136231 
C    -0.0614506   -2.4605773    2.1197999 
C     0.8841626    0.0021942   -2.7201029 
C    -1.1702785    2.1295361   -2.4900430 
C     2.4273966   -2.4009422    0.2114897 
C     0.7587465    3.4239370   -0.5010632 
C     3.6444568   -2.6174832   -0.4727101 
C     1.5359469    4.2805406    0.3063891 
C     2.4374982    0.6768678    4.5486996 
C    -0.3807919   -3.9039724    4.0735533 
C     0.5499753    2.2514866    4.0747295 
C    -0.9148494   -4.7486406    1.7854088 
C     2.6874519   -0.1527363   -4.3679370 
C    -2.9473145    3.8229513   -2.3243597 
C     1.3026437   -2.1600660   -3.8115187 
C    -1.6968805    3.4790660   -4.4606801 
C     2.0099848   -0.0845200    3.4459671 
C    -0.0353204   -2.6643382    3.5060186 
C     0.1686044    1.4318109    2.9999582 
C    -0.5381701   -3.4878836    1.2891616 
C     1.9177351    0.5965636   -3.4645720 
C    -2.1855233    2.7773501   -1.7731269 
C     0.5882686   -1.3521537   -2.9062611 
C    -0.9153109    2.5065146   -3.8157716 
C     1.6199079    1.7901514    4.9039582 
C    -0.7349940   -4.9643591    3.1870155 
C     2.4087835   -1.5524366   -4.4678481 
C    -2.7551160    4.0817163   -3.7124982 
C     5.8554991    0.0024183   -1.5231436 
C     4.2448557    3.2065631    2.4088620 
C     3.7519892    0.2363033    5.2541675 
C    -0.3927774   -4.0636155    5.6153094 
C    -0.1449740    3.6178727    4.3008154 
C    -1.5149264   -5.7776630    0.7887243 
C     3.6926559    0.5619604   -5.3069806 
C    -3.8440978    4.6295936   -1.3403084 
C     0.8032364   -3.6180616   -4.0108906 
C    -1.3402494    3.9269254   -5.9000679 
C     4.7778820   -0.2295066    4.1801107 
C     3.4685828   -0.9745820    6.1809256 
C     4.4498101    1.3591152    6.0619574 
C    -0.1745517   -2.7021920    6.3194513 
C     0.7482392   -5.0056948    6.0768318 
C    -1.7637194   -4.6129978    6.0914781 
C    -1.1010191    3.9466008    3.1295665 
C    -0.9837886    3.6256184    5.6046115 
C     0.9230593    4.7426328    4.3556123 
C    -0.3820799   -6.6373059    0.1691239 
C    -2.2223517   -5.0385648   -0.3814908 
C    -2.5999649   -6.6758607    1.4353377 
C     3.1093739    0.4870035   -6.7441950 
C     5.1121835   -0.0623650   -5.3111478 
C     3.8542070    2.0500413   -4.9166515 
C    -4.2991153    6.0165659   -1.8589399 
C    -5.0817260    3.7912545   -0.9351052 
C    -3.0126099    4.9170660   -0.0548602 
C    -0.7513249   -3.6147502   -4.0655628 
C     1.2624626   -4.2866924   -5.3307202 
C     1.2414496   -4.4791859   -2.7995645 
C    -0.1117302    3.1562607   -6.4371968 
C    -2.5018699    3.6787294   -6.8956924 
C    -0.9788612    5.4363243   -5.8806190 
C     1.3820079    1.8922741    7.2674368 
C    -0.0107984   -7.2367538    3.5903134 
C     4.2316915   -3.0682958   -4.5612682 
C    -4.8916399    4.5538610   -4.6613012 
H     1.8969914   -3.2681426    0.6136253 
H    -0.0805634    3.8546472   -1.0516898 
H     4.0444108   -3.6222486   -0.6269291 
H     1.3195517    5.3482382    0.3862664 
H     2.5844503   -0.9649497    3.1461522 
H     0.2529135   -1.8373728    4.1546985 
H    -0.6738181    1.7078619    2.3618414 
H    -0.6362789   -3.2849496    0.2183355 
H     2.1260629    1.6579016   -3.3164842 
H    -2.3456348    2.4891469   -0.7274962 
H    -0.2223336   -1.7875435   -2.3131465 
H    -0.1011601    2.0197509   -4.3537744 
H     6.5567196    0.1589487   -0.6782430 
H     6.2869694    0.3241590   -2.4816196 
H     5.3196015    3.4458589    2.3843261 
H     3.8837279    3.0258766    3.4405092 
H     4.4610622   -1.1495095    3.6609430 
H     5.7403750   -0.4522972    4.6716921 
H     4.9431512    0.5443672    3.4134282 
H     4.4013313   -1.3048473    6.6719037 
H     2.7370297   -0.7300084    6.9689435 
H     3.0688408   -1.8246586    5.6005539 
H     4.5649865    2.2782956    5.4635201 
H     3.9177535    1.6282952    6.9839599 
H     5.4574519    1.0117165    6.3497296 
H    -0.2508525   -2.8481105    7.4106267 
H     0.8225763   -2.2791623    6.1134643 
H    -0.9330988   -1.9572792    6.0239675 
H     1.7255848   -4.6482582    5.7065071 
H     0.7888130   -5.0292017    7.1805276 
H     0.5981418   -6.0370799    5.7291514 
H    -1.9633011   -5.6141239    5.6841700 
H    -1.7777754   -4.6695829    7.1945251 
H    -2.5816239   -3.9424934    5.7749426 
H    -1.9436270    3.2372431    3.0700916 
H    -1.5260464    4.9537050    3.2813114 
H    -0.5747273    3.9461182    2.1599214 
H    -1.6025978    4.5401518    5.6414285 
H    -1.6583321    2.7526665    5.6451138 
H    -0.3457184    3.6249323    6.4996639 
H     1.5084455    4.7751585    3.4211780 
H     1.6158017    4.5936783    5.1973868 
H     0.4255758    5.7209487    4.4818024 
H    -0.8001349   -7.3406415   -0.5733824 
H     0.3533134   -5.9941873   -0.3436084 
H     0.1567806   -7.2259654    0.9264876 
H    -1.5206275   -4.4821333   -1.0247488 
H    -2.9908267   -4.3375402   -0.0095713 
H    -2.7246971   -5.7794917   -1.0260799 
H    -2.2023944   -7.3669827    2.1889906 
H    -3.0866726   -7.2755277    0.6463526 
H    -3.3748299   -6.0597715    1.9237192 
H     3.7839571    0.9984833   -7.4543844 
H     2.1220023    0.9782339   -6.7919800 
H     2.9987425   -0.5624611   -7.0632772 
H     5.4754726   -0.2396225   -4.2860952 
H     5.1408906   -1.0127696   -5.8601737 
H     5.8140990    0.6320366   -5.8051827 
H     4.5696957    2.5298854   -5.6056769 
H     4.2418647    2.1598844   -3.8879202 
H     2.9057731    2.6089001   -4.9922163 
H    -5.0806903    5.9580068   -2.6283547 
H    -3.4539028    6.5912137   -2.2703101 
H    -4.7220303    6.5828431   -1.0104643 
H    -4.7775516    2.8359653   -0.4713722 
H    -5.6976275    4.3454194   -0.2045947 
H    -5.7145753    3.5518144   -1.8062914 
H    -2.0931695    5.4784288   -0.2970816 
H    -3.6117374    5.5272254    0.6431405 
H    -2.7194893    4.0007389    0.4829527 
H    -1.1165072   -2.9762711   -4.8885613 
H    -1.2157588   -3.2661980   -3.1282945 
H    -1.1148292   -4.6417035   -4.2412802 
H     0.6853784   -5.2179995   -5.4694496 
H     2.3263858   -4.5582530   -5.3339803 
H     1.0749732   -3.6328387   -6.1978275 
H     0.8758259   -4.0417061   -1.8543198 
H     2.3397924   -4.5477854   -2.7265623 
H     0.8375754   -5.5033904   -2.8885290 
H     0.1279250    3.5193069   -7.4509380 
H    -0.3003920    2.0699455   -6.5076212 
H     0.7832341    3.3137428   -5.8108541 
H    -3.3470013    4.3561132   -6.7126146 
H    -2.1490746    3.8592708   -7.9265729 
H    -2.8579851    2.6355874   -6.8357163 
H    -1.8289115    6.0429814   -5.5327145 
H    -0.7027902    5.7694892   -6.8972292 
H    -0.1173284    5.6192367   -5.2140884 
H     2.0109407    1.0359247    7.5710048 
H     1.4284582    2.6684997    8.0461149 
H     0.3394457    1.5471594    7.1450774 
H     0.0021339   -7.8183573    4.5263428 
H    -0.2946737   -7.9104587    2.7616766 
H     0.9942039   -6.8206101    3.4006153 
H     4.9282448   -3.4525731   -5.3214422 
H     3.7740423   -3.9202623   -4.0262075 
H     4.7757405   -2.4409881   -3.8342866 
H    -5.4230904    5.4302053   -5.0614232 
H    -4.8811515    3.7479571   -5.4158572 
H    -5.4094922    4.1840417   -3.7591466 
