213
Energy =
C    -3.4605960   -1.5883815   -0.0902798 
C    -3.7155531   -0.6307210   -1.0977277 
C    -3.0306456   -0.6684685   -2.3513969 
H    -4.3385760    0.2410137   -0.8599473 
Pd   -1.5625981   -0.4650693   -0.6901659 
P     0.2262835    0.5416740   -1.7748040 
P    -0.5728790   -0.2308985    1.4247786 
H    -3.0221343   -2.5457083   -0.4124448 
H    -2.7396355   -1.6540289   -2.7438250 
C    -5.3431336   -1.8566486    3.7661836 
C    -5.3689747   -0.6358961    3.0705776 
C    -4.7469035   -0.5182967    1.8244209 
C    -4.0860941   -1.6242451    1.2416296 
C    -4.0522063   -2.8377359    1.9639995 
C    -4.6721782   -2.9566374    3.2115063 
H    -5.8435228   -1.9471988    4.7357187 
H    -5.8825649    0.2294461    3.5025615 
H    -4.7792163    0.4418724    1.3027232 
H    -3.5377619   -3.6992003    1.5303031 
H    -4.6328208   -3.9106866    3.7469834 
C    -3.3615214    2.4573795   -5.2977859 
C    -3.1122226    1.1333376   -5.6864501 
C    -3.0104811    0.1212549   -4.7252642 
C    -3.1601442    0.4092300   -3.3521086 
C    -3.4162822    1.7480316   -2.9742360 
C    -3.5173759    2.7594722   -3.9349469 
H    -3.4349491    3.2493061   -6.0500694 
H    -2.9962980    0.8853924   -6.7451569 
H    -2.8117059   -0.9084165   -5.0382694 
H    -3.5053321    2.0050586   -1.9142335 
H    -3.7109380    3.7902622   -3.6184575 
O     3.7172782    2.7984022    0.7810174 
O     1.1039146    4.1309852    2.0291659 
O     5.1581859    1.3682136    1.8869743 
O    -0.1791985    5.7751807    1.0222094 
O    -3.0386729    4.1926066    4.6380235 
O    -1.0127399   -5.2501762    4.6948188 
O     5.7226385   -1.7977686   -1.2658297 
O     0.5628003    0.4862490   -7.7625137 
C     1.6783028    1.4138835    0.9986252 
C     0.8360957    2.4080254    0.2697614 
C     1.2209467    0.1652856    1.5377936 
C     0.2226939    2.2038005   -1.0133138 
C     3.0216673    1.6992106    1.2167744 
C     0.6201752    3.6635191    0.8362613 
C     3.8974875    0.8265283    1.8814889 
C    -0.1569541    4.6619806    0.2284167 
C    -1.2691713    1.1904890    2.3555786 
C    -0.7984445   -1.7286414    2.4593076 
C     1.9007044   -0.1726483   -1.5577439 
C     0.2159075    0.6869859   -3.6034693 
C     2.1051376   -0.7067746    2.1940527 
C    -0.5731870    3.2064112   -1.6023846 
C     3.4723159   -0.3991204    2.3711134 
C    -0.7725681    4.4644384   -0.9981171 
C    -1.1776817    2.6445966    4.3388337 
C    -0.8485604   -4.1808502    2.5612686 
C    -2.8964192    3.0071561    2.5602083 
C    -1.2435793   -2.8213109    4.6169925 
C     3.3208037   -2.1400752   -1.2097983 
C     0.7447387    1.8042054   -5.7257161 
C     4.3170180    0.0556524   -1.8641967 
C     0.2601286   -0.6430647   -5.6641372 
C    -0.6689265    1.5899270    3.5583608 
C    -0.7207738   -2.9864836    1.8335065 
C    -2.3326143    1.9432852    1.8373686 
C    -1.0996024   -1.6660594    3.8234421 
C     2.0530107   -1.5208187   -1.2326444 
C     0.5673086    1.8295706   -4.3257366 
C     3.0238472    0.5924880   -1.9151592 
C     0.0975161   -0.5408303   -4.2774422 
C    -2.3707746    3.2643683    3.8647190 
C    -1.0124408   -4.0714441    3.9773706 
C     4.4449665   -1.3006274   -1.4288837 
C     0.4989244    0.5681053   -6.3855115 
C     4.9789665    2.7341243    1.4637688 
C     0.4212728    5.3767210    2.2661681 
C    -0.3793767    3.0407716    5.6140983 
C    -0.8853964   -5.5490129    1.8315188 
C    -4.0132225    3.8788914    1.9318543 
C    -1.6419197   -2.6202749    6.1051223 
C     3.3519097   -3.6768625   -0.9901681 
C     1.2389885    3.1236648   -6.3858846 
C     5.5182655    0.8681829   -2.4094610 
C     0.2836333   -2.0360225   -6.3400488 
C     1.1450447    2.9463140    5.3122815 
C    -0.6875763    2.0452846    6.7619815 
C    -0.6354172    4.4900307    6.0981475 
C    -0.8637019   -5.3601031    0.2969357 
C    -2.1963389   -6.3024404    2.1852852 
C     0.3311043   -6.4353689    2.2064174 
C    -5.3670229    3.6875930    2.6620891 
C    -3.6019088    5.3748691    1.9740465 
C    -4.2334491    3.5075371    0.4467562 
C    -2.6058438   -1.4065258    6.2261022 
C    -0.3748565   -2.2976007    6.9400603 
C    -2.4015555   -3.8250318    6.7150123 
C     4.6893909   -4.3754911   -1.3393610 
C     2.2944845   -4.3189772   -1.9339787 
C     2.9805343   -3.9918651    0.4804732 
C     1.8503428    2.9669910   -7.8010131 
C     0.0678724    4.1389185   -6.4320978 
C     2.3784288    3.7239048   -5.5119268 
C     5.1002818    2.3202915   -2.7380677 
C     6.7209755    0.9483516   -1.4332263 
C     5.9780305    0.1790584   -3.7228028 
C     1.6928877   -2.2477317   -6.9564817 
C     0.0448834   -3.1627373   -5.3075450 
C    -0.7938989   -2.1930648   -7.4427515 
C    -3.8448420    3.6476742    5.6930738 
C     0.1822358   -5.5544041    5.4275418 
C     6.1614967   -1.8516636    0.0994306 
C    -0.5744165    0.9842986   -8.4767170 
H     1.7216827   -1.6487573    2.5961693 
H    -1.0725228    3.0014616   -2.5521918 
H     4.1556882   -1.0850684    2.8769081 
H    -1.3837077    5.2390750   -1.4668820 
H     0.2373446    1.0751827    3.8867824 
H    -0.5772371   -3.0198666    0.7499066 
H    -2.7033314    1.6906327    0.8406877 
H    -1.2465524   -0.6896921    4.2853751 
H     1.1566715   -2.1067412   -1.0021346 
H     0.7477985    2.7635979   -3.7907573 
H     2.8733050    1.6259662   -2.2342957 
H    -0.1065556   -1.4376660   -3.6863473 
H     4.9508597    3.3924128    2.3557292 
H     5.7864103    3.0129430    0.7708118 
H     1.1483097    6.1393231    2.5869905 
H    -0.3735876    5.2178791    3.0215914 
H     1.4788523    1.9109668    5.1300179 
H     1.7097709    3.3170953    6.1848906 
H     1.4209372    3.5462521    4.4302576 
H    -0.1185141    2.3205050    7.6677985 
H    -1.7587389    2.0299333    7.0231005 
H    -0.3962141    1.0199041    6.4769942 
H    -0.5286951    5.2170350    5.2757418 
H    -1.6297948    4.6332443    6.5410655 
H     0.1115287    4.7399593    6.8716804 
H    -0.9528647   -6.3456258   -0.1904419 
H    -1.7075826   -4.7397905   -0.0558613 
H     0.0756945   -4.9025840   -0.0538236 
H    -3.0820963   -5.7379886    1.8446460 
H    -2.2085619   -7.2820364    1.6752176 
H    -2.2816881   -6.4702065    3.2688658 
H     0.2481563   -6.8274560    3.2292214 
H     0.3823228   -7.3021623    1.5236300 
H     1.2759561   -5.8737852    2.1156030 
H    -5.3486850    4.1136531    3.6747070 
H    -6.1676205    4.2010715    2.1005487 
H    -5.6328388    2.6179822    2.7311108 
H    -4.3919450    5.9908189    1.5082987 
H    -3.4592531    5.7185107    3.0094273 
H    -2.6654463    5.5411404    1.4155933 
H    -4.6277827    2.4825280    0.3265413 
H    -3.3013203    3.5955068   -0.1371666 
H    -4.9765650    4.1939197    0.0066571 
H    -2.9498214   -1.3214866    7.2711746 
H    -2.1282551   -0.4483931    5.9668146 
H    -3.4860526   -1.5343110    5.5760149 
H     0.1282215   -1.3950857    6.5497309 
H     0.3568233   -3.1215858    6.9200860 
H    -0.6493696   -2.1100284    7.9935428 
H    -3.2416605   -4.1291564    6.0680324 
H    -2.8143964   -3.5246672    7.6939526 
H    -1.7680858   -4.7063356    6.8791149 
H     4.5163786   -5.4665423   -1.3470763 
H     5.4853263   -4.1793280   -0.6076475 
H     5.0559451   -4.0768489   -2.3341188 
H     1.2741532   -3.9399553   -1.7627966 
H     2.5541479   -4.1271449   -2.9894058 
H     2.2715034   -5.4116647   -1.7781814 
H     2.9586162   -5.0839927    0.6424523 
H     1.9904586   -3.5839837    0.7473002 
H     3.7169512   -3.5572531    1.1784945 
H     1.1002166    2.7815264   -8.5814044 
H     2.5917276    2.1527522   -7.8342014 
H     2.3609682    3.9102523   -8.0636512 
H     0.4106148    5.1014181   -6.8522588 
H    -0.7615916    3.7685409   -7.0591610 
H    -0.3370580    4.3266887   -5.4218422 
H     3.2177819    3.0124414   -5.4268311 
H     2.7567585    4.6449328   -5.9876336 
H     2.0519549    3.9958551   -4.4946048 
H     4.7315607    2.8506430   -1.8416295 
H     4.3152581    2.3632650   -3.5111892 
H     5.9736654    2.8701087   -3.1281298 
H     7.4222020    1.7269510   -1.7819063 
H     7.2732406   -0.0001826   -1.3873020 
H     6.3951317    1.2115871   -0.4136555 
H     5.1556501    0.1558871   -4.4597091 
H     6.3036164   -0.8554744   -3.5246356 
H     6.8255583    0.7326631   -4.1659815 
H     1.7515352   -3.2433916   -7.4321087 
H     2.4698969   -2.1925396   -6.1734629 
H     1.9063049   -1.4828919   -7.7195440 
H    -0.9565519   -3.0942788   -4.8434153 
H     0.1063283   -4.1389349   -5.8179938 
H     0.8020127   -3.1595948   -4.5050756 
H    -1.7937700   -1.9030252   -7.0731212 
H    -0.8465541   -3.2499059   -7.7586592 
H    -0.5552161   -1.5942772   -8.3320677 
H    -4.4926188    4.4661843    6.0415338 
H    -4.4653037    2.8104268    5.3248144 
H    -3.2249008    3.2921006    6.5355859 
H     0.2197942   -5.0059079    6.3857664 
H     0.1526758   -6.6349144    5.6360943 
H     1.0837347   -5.3143537    4.8355737 
H     6.1316095   -0.8520620    0.5679465 
H     7.1973934   -2.2222604    0.0781236 
H     5.5371252   -2.5428879    0.6953836 
H    -1.4379265    0.3033755   -8.3664313 
H    -0.8663643    1.9904949   -8.1279884 
H    -0.2824628    1.0298334   -9.5366817 
