213
Energy =
C    -3.1708137   -0.1861048   -1.4148945 
C    -3.5226784   -0.9165195   -0.2364386 
C    -3.4215295   -0.3393646    1.0487568 
H    -3.6966998   -1.9980461   -0.3095515 
Pd   -1.4241750   -0.2573138   -0.0500932 
P     0.0916729   -0.7775042    1.6419451 
P     0.1003418    0.8495942   -1.4213698 
H    -3.3774337    0.8929854   -1.4328011 
H    -3.3715348    0.7601587    1.1100416 
C    -2.7135004   -2.0229719   -5.2867109 
C    -2.5376997   -2.7896559   -4.1226550 
C    -2.6824826   -2.2007890   -2.8635740 
C    -3.0211262   -0.8318713   -2.7342403 
C    -3.1932372   -0.0732636   -3.9129006 
C    -3.0411010   -0.6642925   -5.1739541 
H    -2.5969895   -2.4834328   -6.2732182 
H    -2.2787650   -3.8508164   -4.1986361 
H    -2.5078215   -2.8060584   -1.9677345 
H    -3.4470658    0.9888724   -3.8331174 
H    -3.1830621   -0.0609329   -6.0759297 
C    -4.3768191   -2.2434798    4.7833258 
C    -4.8772861   -2.7718214    3.5834381 
C    -4.5559878   -2.1748909    2.3594902 
C    -3.7434634   -1.0198564    2.3146265 
C    -3.2577191   -0.4911916    3.5327436 
C    -3.5602193   -1.1025533    4.7526516 
H    -4.6313476   -2.7123182    5.7393319 
H    -5.5336920   -3.6480475    3.6012482 
H    -4.9712553   -2.5881850    1.4348070 
H    -2.6141549    0.3937684    3.5163710 
H    -3.1589990   -0.6872428    5.6826446 
O     4.3857866    1.4330510    1.6247812 
O     4.6431286   -0.2619826   -1.0411259 
O     4.3172383    3.7405053    1.6768241 
O     5.1363907   -2.5243137   -1.0173910 
O     3.3748532   -2.0454078   -5.5013160 
O    -3.3636928    4.5953138   -4.5822505 
O     1.3578346    3.9547640    5.0756256 
O    -1.8193809   -5.7745097    4.3598338 
C     2.3512601    1.0885933    0.2536135 
C     2.5366894   -0.3934311    0.2583884 
C     1.3232698    1.8162893   -0.4340165 
C     1.6924108   -1.3389589    0.9322442 
C     3.2986604    1.8702882    0.9087472 
C     3.6633763   -0.9336907   -0.3580096 
C     3.2571637    3.2730855    0.9420339 
C     3.9713526   -2.3036963   -0.3379847 
C     1.1665432   -0.0600327   -2.5886196 
C    -0.8200536    2.0824419   -2.4227492 
C     0.4829902    0.5780633    2.7975821 
C    -0.4984428   -2.2414354    2.5703598 
C     1.2871807    3.2217469   -0.3900526 
C     2.0229200   -2.7071286    0.9592692 
C     2.2473242    3.9832265    0.3119283 
C     3.1735263   -3.2208256    0.3262243 
C     1.8287820   -2.1456435   -3.6729291 
C    -1.5532505    3.0117764   -4.5721578 
C     2.9929639    0.0000638   -4.2315267 
C    -2.4770341    3.9042875   -2.4330896 
C     1.8221175    1.6119048    4.5779769 
C    -0.5627627   -3.7038993    4.5402809 
C    -0.1202159    2.8236322    3.5770069 
C    -1.5558108   -4.4486241    2.3740188 
C     1.0325490   -1.4452527   -2.7523123 
C    -0.7369203    2.1438793   -3.8229049 
C     2.1701404    0.6324954   -3.2813682 
C    -1.6860006    2.9600216   -1.7527292 
C     1.5512768    0.5377232    3.7043261 
C    -0.2007423   -2.4925443    3.9113021 
C    -0.3574559    1.7025289    2.7718168 
C    -1.1531283   -3.2305657    1.8124161 
C     2.7266185   -1.3793192   -4.4803867 
C    -2.4726025    3.8329601   -3.8552492 
C     1.0401270    2.7917014    4.4068796 
C    -1.3249928   -4.6272417    3.7733442 
C     5.1940517    2.6064623    1.8060512 
C     5.4429242   -1.2820143   -1.6698380 
C     1.7498826   -3.6909831   -3.7546707 
C    -1.3622129    3.1252938   -6.1061214 
C     4.1076421    0.8566394   -4.8997516 
C    -3.2063127    4.9604278   -1.5557104 
C     2.8917908    1.3949468    5.6861561 
C    -0.0123862   -3.9236212    5.9781984 
C    -1.1169838    4.0078236    3.5767743 
C    -2.1030522   -5.5803636    1.4691681 
C     3.1672081   -4.2956038   -3.5709822 
C     1.1474443   -4.1630771   -5.1030003 
C     0.8548278   -4.2551988   -2.6251001 
C    -0.3582903    2.0689698   -6.6224871 
C    -0.7855441    4.5369577   -6.3979659 
C    -2.6702628    2.9393156   -6.9184049 
C     3.4955401    1.7400425   -6.0175041 
C     4.7237413    1.8160729   -3.8403466 
C     5.2853083    0.0319937   -5.4779057 
C    -3.8545847    6.1445685   -2.3132295 
C    -2.1351544    5.6006286   -0.6249535 
C    -4.2866659    4.2593884   -0.6927045 
C     2.7318531    2.3331844    6.9087302 
C     4.3194604    1.5285707    5.1015833 
C     2.7421589   -0.0516121    6.2353321 
C     1.5218430   -3.6679114    5.9323162 
C    -0.6746136   -2.9032612    6.9392001 
C    -0.1711474   -5.3471241    6.5658362 
C    -2.3661289    3.6737756    2.7284364 
C    -1.6044048    4.2763965    5.0252449 
C    -0.4780452    5.2896262    2.9838916 
C    -3.5172513   -6.0617087    1.8789318 
C    -2.1924142   -5.1225661   -0.0051259 
C    -1.1091819   -6.7708539    1.5393191 
C     2.8487901   -1.8132281   -6.8164923 
C    -4.6987190    4.0682780   -4.6084222 
C     2.4758575    4.6826137    4.5462326 
C    -3.0000993   -5.5953386    5.1537269 
H     0.5125615    3.7563384   -0.9449288 
H     1.3687880   -3.4045510    1.4880112 
H     2.2122034    5.0750558    0.3291570 
H     3.4224363   -4.2838895    0.3579939 
H     0.2972664   -1.9716316   -2.1396601 
H    -0.0443323    1.4777013   -4.3372667 
H     2.3128334    1.6956236   -3.0703314 
H    -1.7316493    2.9192640   -0.6578959 
H     2.1900323   -0.3498538    3.7295003 
H     0.3453057   -1.7372963    4.4830872 
H    -1.1935752    1.6992212    2.0685834 
H    -1.3279913   -3.0332888    0.7503250 
H     5.9653239    2.6463096    1.0097100 
H     5.6400741    2.5961912    2.8098714 
H     6.5104640   -1.0467203   -1.5361946 
H     5.1648961   -1.3527438   -2.7397053 
H     3.8448898   -3.9721850   -4.3750243 
H     3.1059720   -5.3985419   -3.5871289 
H     3.6020962   -3.9908916   -2.6041701 
H     0.9412880   -5.2474823   -5.0571884 
H     0.1976124   -3.6416678   -5.3149507 
H     1.8400060   -3.9958892   -5.9399328 
H     1.2124644   -3.9485249   -1.6269784 
H    -0.1960025   -3.9376219   -2.7322620 
H     0.8737442   -5.3578381   -2.6664528 
H    -0.2309740    2.1937479   -7.7114031 
H     0.6363781    2.1773908   -6.1622403 
H    -0.7144761    1.0396149   -6.4377451 
H     0.1796756    4.6792140   -5.8804779 
H    -0.6173495    4.6617413   -7.4829727 
H    -1.4849841    5.3200507   -6.0622086 
H    -2.4197778    2.8344571   -7.9886443 
H    -3.2105127    2.0273921   -6.6115867 
H    -3.3417742    3.8023821   -6.8175346 
H     2.7409365    2.4284491   -5.5990331 
H     4.2836305    2.3491645   -6.4949407 
H     3.0061060    1.1390003   -6.8016282 
H     5.5727677    2.3568787   -4.2925624 
H     4.0069164    2.5780060   -3.4912038 
H     5.0843290    1.2692744   -2.9547146 
H     5.0232153   -0.5228552   -6.3883340 
H     5.6722230   -0.6958726   -4.7453965 
H     6.1058289    0.7240297   -5.7359954 
H    -4.1515177    6.9049226   -1.5693776 
H    -3.1520520    6.6098829   -3.0218224 
H    -4.7632063    5.8616541   -2.8631580 
H    -1.3681961    6.1229466   -1.2232972 
H    -1.6243128    4.8620467    0.0116583 
H    -2.6118112    6.3382952    0.0440625 
H    -5.0717449    3.8109076   -1.3266093 
H    -4.7688868    4.9863135   -0.0153244 
H    -3.8561490    3.4552582   -0.0701426 
H     3.3820283    1.9631809    7.7209362 
H     1.6922660    2.3381850    7.2763521 
H     3.0222617    3.3718498    6.7016992 
H     4.4585108    0.8498699    4.2427855 
H     4.5144830    2.5593915    4.7610463 
H     5.0712043    1.2811674    5.8720512 
H     3.4219641   -0.1925283    7.0930008 
H     3.0074991   -0.8156952    5.4867825 
H     1.7107649   -0.2436301    6.5789811 
H     1.7730524   -2.6544574    5.5867120 
H     2.0138127   -4.3912733    5.2589036 
H     1.9501417   -3.7899574    6.9425853 
H    -0.2624593   -3.0134485    7.9580760 
H    -0.5005626   -1.8629274    6.6119567 
H    -1.7665057   -3.0602371    6.9922350 
H     0.1873754   -6.1206372    5.8694127 
H     0.4337512   -5.4040894    7.4880219 
H    -1.2058154   -5.5867136    6.8482424 
H    -2.8981456    2.7842676    3.1098906 
H    -2.1143268    3.4998582    1.6685632 
H    -3.0694646    4.5226598    2.7619619 
H    -2.3385582    5.1019586    5.0249135 
H    -0.7669676    4.5516499    5.6832739 
H    -2.0989346    3.3795959    5.4391485 
H    -0.0135916    5.0798127    2.0048368 
H     0.2845754    5.7098012    3.6543830 
H    -1.2548781    6.0611568    2.8368878 
H    -3.4993852   -6.6124087    2.8290154 
H    -3.9112954   -6.7448975    1.1057992 
H    -4.2145971   -5.2112408    1.9683430 
H    -1.2165235   -4.8001501   -0.4068115 
H    -2.5449812   -5.9636461   -0.6258539 
H    -2.9140039   -4.2949103   -0.1291186 
H    -0.1065118   -6.4603724    1.1948454 
H    -1.4570408   -7.5931115    0.8882513 
H    -1.0264560   -7.1521569    2.5692047 
H     3.1352985   -0.8165422   -7.1977689 
H     3.2857131   -2.5870695   -7.4656478 
H     1.7470517   -1.8977375   -6.8232426 
H    -4.7292382    3.0946759   -5.1308717 
H    -5.1011651    3.9351445   -3.5877531 
H    -5.3130812    4.7995887   -5.1544203 
H     3.4310881    4.1679751    4.7507120 
H     2.4738852    5.6593986    5.0526637 
H     2.3776596    4.8226493    3.4556247 
H    -3.8707220   -5.3632255    4.5157522 
H    -3.1681452   -6.5468793    5.6799694 
H    -2.8742313   -4.7794796    5.8874624 
