213
Energy =
C    -2.9331543   -2.4862613   -0.6089335 
C    -3.3706895   -1.3756662   -1.3681964 
C    -2.6479505   -0.9365940   -2.5214693 
H    -4.1931913   -0.7610450   -0.9772250 
Pd   -1.3600084   -0.8302880   -0.7140294 
P     0.2243739    0.6987800   -1.4519418 
P    -0.5213292   -0.6933296    1.4871677 
H    -2.2995278   -3.2265118   -1.1236272 
H    -2.1277663   -1.7046276   -3.1128844 
C    -5.1007822   -3.9713032    2.7926837 
C    -4.8605516   -2.5934637    2.6693858 
C    -4.1354816   -2.1028638    1.5799865 
C    -3.6295654   -2.9779514    0.5950657 
C    -3.8435474   -4.3645837    0.7506213 
C    -4.5880811   -4.8541761    1.8304128 
H    -5.6779533   -4.3552786    3.6401554 
H    -5.2317704   -1.8993928    3.4305254 
H    -3.9295557   -1.0323679    1.5039110 
H    -3.4471630   -5.0587286    0.0012046 
H    -4.7695038   -5.9304252    1.9190623 
C    -3.5006806    2.7244373   -4.6269479 
C    -3.7253652    2.6437853   -3.2417519 
C    -3.4554134    1.4565283   -2.5544315 
C    -2.9681073    0.3165423   -3.2351545 
C    -2.7491189    0.4152028   -4.6253718 
C    -3.0057836    1.6073164   -5.3141884 
H    -3.7062103    3.6551658   -5.1654280 
H    -4.1041595    3.5135088   -2.6940067 
H    -3.5989107    1.4173560   -1.4696033 
H    -2.3691889   -0.4541277   -5.1699227 
H    -2.8126991    1.6626359   -6.3903871 
O     4.0092046    2.1048870    1.1698746 
O     1.7897621    3.4590788    2.7839882 
O     5.3597121    0.3819937    1.9128864 
O     0.4756277    5.2994670    2.3255769 
O    -3.1719049    3.9460615    4.2509009 
O    -1.5591409   -5.5483477    4.8811752 
O     5.6935989   -1.6561655   -2.0369512 
O     0.9747031    2.1925859   -7.1980774 
C     1.8544811    0.8942565    1.3102641 
C     1.0727588    2.0757011    0.8547623 
C     1.2926906   -0.3775193    1.6770354 
C     0.2409619    2.1242598   -0.3100530 
C     3.2321915    1.0136484    1.4694481 
C     1.0834441    3.2344176    1.6279362 
C     4.0530232   -0.0333462    1.9124519 
C     0.2726183    4.3462997    1.3570758 
C    -1.3166224    0.7354263    2.3273905 
C    -0.8460865   -2.1524480    2.5532598 
C     1.9202875    0.0029277   -1.5063578 
C     0.1955399    1.3099784   -3.1847071 
C     2.1289505   -1.4162207    2.1267287 
C    -0.6235642    3.2149876   -0.5336599 
C     3.5282325   -1.2730776    2.2434535 
C    -0.6300347    4.3509378    0.3026436 
C    -1.4327315    2.3034723    4.2091602 
C    -1.4967279   -3.1272546    4.7152766 
C    -3.2035710    2.3138380    2.4446209 
C    -0.7115930   -4.5854392    2.8498364 
C     4.2498800    0.2952467   -2.2076934 
C     0.4256572    2.9990281   -4.9506625 
C     3.3353547   -1.9777267   -1.7353609 
C     0.5995736    0.5689473   -5.4873846 
C    -0.8003266    1.2487413    3.5312943 
C    -1.3086494   -2.0185714    3.8652278 
C    -2.5008646    1.2709774    1.8075242 
C    -0.5398540   -3.4362867    2.0616735 
C     2.9849848    0.8232905   -1.8993329 
C     0.2340223    2.6405472   -3.5991565 
C     2.0872274   -1.3871140   -1.4819191 
C     0.3361364    0.2915890   -4.1424368 
C    -2.6038076    2.8651319    3.6111001 
C    -1.2801532   -4.4119058    4.1503514 
C     4.4315104   -1.1006967   -1.9807084 
C     0.6920338    1.9445182   -5.8706706 
C     5.2945016    1.8084358    1.7399293 
C     1.6720392    4.8724361    3.0049346 
C    -0.9428212    2.7228957    5.6195595 
C    -1.8572733   -2.8103766    6.1944323 
C    -4.5627982    2.7566140    1.8330905 
C    -0.1960455   -5.9630442    2.3630436 
C     5.2672539    1.2508708   -2.8929964 
C     0.3260066    4.5068647   -5.3083252 
C     3.4688946   -3.5169788   -1.8101354 
C     0.7807217   -0.6001008   -6.4872490 
C     0.4185465    2.0670710    5.9527941 
C    -2.0046488    2.2265263    6.6384698 
C    -0.7642260    4.2540449    5.8014874 
C    -1.7052760   -3.9847729    7.1923465 
C    -3.3033577   -2.2562009    6.2636746 
C    -0.8763621   -1.7124033    6.6964140 
C    -4.3085094    3.7404924    0.6621273 
C    -5.3033998    1.5166984    1.2608441 
C    -5.5444076    3.3817175    2.8573902 
C    -1.3189262   -7.0233265    2.2431091 
C     0.8849452   -6.4603765    3.3612625 
C     0.4738725   -5.8460259    0.9778311 
C     6.4543984    0.5423699   -3.5894027 
C     5.8121209    2.2868519   -1.8804917 
C     4.5021687    2.0085359   -4.0208589 
C    -0.5664739    5.2494146   -4.2741223 
C     1.7276083    5.1696350   -5.2448742 
C    -0.3472792    4.7352200   -6.6853925 
C     2.0734133   -4.1822544   -1.8231401 
C     4.1744921   -3.9254591   -3.1306702 
C     4.2512169   -4.0660031   -0.5915982 
C     0.5198083   -1.9679181   -5.8104303 
C    -0.2167688   -0.4686937   -7.6677997 
C     2.2385370   -0.6373436   -7.0143730 
C    -2.9007392    5.2346371    3.6753267 
C    -2.9450477   -5.9037600    4.9711109 
C     6.5101527   -1.3722242   -0.8927472 
C     2.2580683    2.7154686   -7.5655368 
H     1.6840368   -2.3715475    2.4172076 
H    -1.3135544    3.1871714   -1.3817639 
H     4.1610099   -2.0923565    2.5922000 
H    -1.3018420    5.1927647    0.1221304 
H     0.1174071    0.8149491    3.9336666 
H    -1.5229305   -1.0190377    4.2489348 
H    -2.8767470    0.8613650    0.8642859 
H    -0.1570757   -3.5273910    1.0414852 
H     2.8053469    1.8957067   -2.0200867 
H     0.1300185    3.4341692   -2.8613525 
H     1.2159605   -2.0099087   -1.2597634 
H     0.2847378   -0.7467768   -3.8056623 
H     5.3803071    2.3033035    2.7289516 
H     6.0856874    2.1333389    1.0495321 
H     2.5474828    5.3896645    2.5617907 
H     1.5756429    5.0700383    4.0815892 
H     0.3666446    0.9658325    5.9667745 
H     0.7374827    2.3878413    6.9589748 
H     1.1978096    2.3674730    5.2299860 
H    -1.6947694    2.4854333    7.6670581 
H    -2.9802198    2.6995571    6.4385516 
H    -2.1260793    1.1312345    6.5816795 
H    -0.2649828    4.7094683    4.9320396 
H    -1.7255055    4.7631182    5.9512388 
H    -0.1421050    4.4455198    6.6931906 
H    -1.7753865   -3.5763665    8.2159821 
H    -2.4950269   -4.7422999    7.0958383 
H    -0.7301083   -4.4855932    7.0867309 
H    -4.0359726   -3.0046914    5.9144407 
H    -3.5599653   -1.9845074    7.3031817 
H    -3.4183284   -1.3547341    5.6359109 
H    -0.9512474   -0.7813632    6.1140859 
H    -1.1040668   -1.4618391    7.7470596 
H     0.1680367   -2.0659519    6.6430436 
H    -3.6462241    3.2836199   -0.0925974 
H    -5.2616413    4.0107237    0.1731680 
H    -3.8257858    4.6690961    1.0071332 
H    -6.2883662    1.8256472    0.8722985 
H    -4.7655434    1.0418712    0.4241894 
H    -5.4674926    0.7555448    2.0429521 
H    -5.2554421    4.3890672    3.1830990 
H    -5.6368412    2.7487835    3.7555035 
H    -6.5403696    3.4589568    2.3870027 
H    -0.9212941   -7.9246565    1.7437961 
H    -1.6954665   -7.3303889    3.2280475 
H    -2.1606411   -6.6429507    1.6399844 
H     0.4627348   -6.5944115    4.3688310 
H     1.7194001   -5.7386682    3.4205014 
H     1.2930261   -7.4289549    3.0202952 
H    -0.2338470   -5.5123096    0.1975858 
H     0.8599671   -6.8337742    0.6734195 
H     1.3299099   -5.1501286    0.9955087 
H     6.9918760    1.2866149   -4.2035900 
H     6.1099313   -0.2676922   -4.2526177 
H     7.1794714    0.1174696   -2.8810551 
H     4.9936005    2.8095401   -1.3566196 
H     6.4466769    1.7942222   -1.1227095 
H     6.4344746    3.0382988   -2.3982704 
H     5.2075944    2.6475814   -4.5808589 
H     3.7003546    2.6600542   -3.6363765 
H     4.0437687    1.2926448   -4.7250511 
H    -0.0963628    5.3216269   -3.2779717 
H    -1.5468546    4.7560435   -4.1614626 
H    -0.7360547    6.2823581   -4.6230994 
H     1.6466716    6.2504865   -5.4595052 
H     2.1588473    5.0520916   -4.2347756 
H     2.4371590    4.7344801   -5.9629652 
H    -1.3439950    4.2604271   -6.7046360 
H    -0.4803341    5.8187671   -6.8508415 
H     0.2266029    4.3272807   -7.5269176 
H     1.4679230   -3.8375092   -2.6806970 
H     1.5073258   -3.9848497   -0.8988624 
H     2.1899514   -5.2759542   -1.9088081 
H     4.2149980   -5.0269745   -3.2044173 
H     5.1996911   -3.5316722   -3.1798870 
H     3.6100416   -3.5457597   -4.0014582 
H     3.7823077   -3.7376756    0.3528905 
H     5.2979213   -3.7280297   -0.6008373 
H     4.2531493   -5.1706487   -0.6097433 
H     0.6239224   -2.7669517   -6.5639519 
H    -0.5013714   -2.0383273   -5.3942925 
H     1.2420009   -2.1781179   -5.0011608 
H    -0.0718508    0.4753970   -8.2120667 
H    -0.0775100   -1.3093617   -8.3708402 
H    -1.2585978   -0.5044010   -7.3024912 
H     2.4770550    0.2380455   -7.6326072 
H     2.3872438   -1.5360979   -7.6391599 
H     2.9551108   -0.6818991   -6.1748207 
H    -1.8508344    5.3117250    3.3449457 
H    -3.5696209    5.4390136    2.8198572 
H    -3.0972239    5.9769432    4.4638305 
H    -3.5625472   -5.0508003    5.3033215 
H    -3.3241600   -6.2524592    3.9950077 
H    -3.0086146   -6.7187823    5.7076332 
H     7.4745580   -1.8713494   -1.0694263 
H     6.0468265   -1.7646551    0.0308799 
H     6.6708877   -0.2864031   -0.7658834 
H     3.0110305    2.5159358   -6.7837004 
H     2.5572247    2.2143381   -8.5009142 
H     2.1978467    3.8024004   -7.7541477 
