213
Energy =
C     3.2513742   -1.1333671    0.4815910 
C     2.9300997   -2.1343428   -0.4877128 
C     2.5406503   -1.7904812   -1.8010887 
H     2.8085280   -3.1763177   -0.1634907 
Pd    1.1862766   -0.7952913   -0.2619196 
P    -0.9202032   -0.9930044   -1.2247432 
P     0.6440981    1.0277062    1.0844844 
H     3.7380913   -0.2147386    0.1281332 
H     2.7847875   -0.7744408   -2.1519470 
C     3.8573695   -2.0080589    4.6559972 
C     4.4540907   -0.8839191    4.0668696 
C     4.2454426   -0.5985563    2.7111190 
C     3.4417309   -1.4423598    1.9118874 
C     2.8386451   -2.5686954    2.5224518 
C     3.0478675   -2.8500807    3.8754427 
H     4.0233354   -2.2302139    5.7151947 
H     5.0948121   -0.2296356    4.6661246 
H     4.7150530    0.2812895    2.2580622 
H     2.1839871   -3.2224716    1.9345899 
H     2.5744667   -3.7279031    4.3273227 
C     1.5421659   -4.5108968   -4.9745647 
C     1.1295893   -3.1704893   -5.0270316 
C     1.4549999   -2.2968450   -3.9863541 
C     2.1861823   -2.7464357   -2.8631681 
C     2.5866048   -4.1005455   -2.8182491 
C     2.2713563   -4.9710524   -3.8673701 
H     1.3054240   -5.1907522   -5.7994261 
H     0.5520530   -2.8050158   -5.8824453 
H     1.1233274   -1.2553730   -4.0284869 
H     3.1823860   -4.4670270   -1.9768596 
H     2.6093147   -6.0117778   -3.8271634 
O    -3.7687130    1.4913805    2.4979787 
O    -4.1623395    2.4586617   -0.5746621 
O    -4.7813301   -0.4341906    3.2922906 
O    -3.5242478    4.5220253   -1.3946551 
O    -2.2502056    3.1144161   -5.3765805 
O    -1.7442859   -6.6265455   -3.1089991 
O    -1.3562188    0.3320950    6.6728667 
O     5.6363265    4.3092945    1.7645485 
C    -2.4610113    0.4219136    0.6858956 
C    -1.9251361    1.7211115    0.1872574 
C    -2.2145177   -0.8546714    0.0789568 
C    -0.5628859    2.1572763    0.2681572 
C    -3.3458900    0.4168081    1.7607654 
C    -2.8148305    2.6287695   -0.3779498 
C    -3.9682088   -0.7471517    2.2388763 
C    -2.4249892    3.8799690   -0.8790048 
C    -1.3534127    0.2183130   -2.5155972 
C    -1.1606017   -2.6763020   -1.8959975 
C    -0.0781395    0.7963007    2.7425490 
C     2.1615954    2.0277001    1.3279646 
C    -2.8633734   -2.0095820    0.5543595 
C    -0.1796431    3.4110843   -0.2405463 
C    -3.7581534   -1.9810058    1.6445205 
C    -1.1031342    4.2967397   -0.8397629 
C    -0.5592846    1.8974179   -4.1256920 
C    -0.9072694   -5.0787714   -1.4314558 
C    -2.9888350    1.3255224   -3.9614693 
C    -2.1573390   -4.2855004   -3.4447130 
C    -1.0090861    1.8188723    4.7728254 
C     4.1526009    3.0425945    0.2887595 
C    -0.7660060   -0.6649287    4.5746331 
C     3.8229939    3.1159572    2.7624475 
C    -0.3226123    0.9603817   -3.1017854 
C    -0.6483943   -3.7304519   -1.1276115 
C    -2.6751361    0.3921317   -2.9612535 
C    -1.9347687   -2.9626158   -3.0288397 
C    -0.5065444    1.9199854    3.4628586 
C     2.9462446    2.3252021    0.2017243 
C    -0.2522235   -0.4864240    3.2798037 
C     2.6338471    2.3833388    2.5984874 
C    -1.9190257    2.1230929   -4.4774394 
C    -1.5766036   -5.3321235   -2.6637019 
C    -1.0298696    0.5118258    5.3434031 
C     4.5248449    3.5140346    1.5858120 
C    -4.4808831    0.9328015    3.6186354 
C    -4.6494831    3.7685998   -0.9014826 
C     0.6818185    2.5737860   -4.7716797 
C    -0.5128810   -6.1279163   -0.3512469 
C    -4.4177585    1.3659110   -4.5614307 
C    -3.0802551   -4.5698293   -4.6558291 
C    -1.4966025    3.1294453    5.4543530 
C     4.9843574    3.2353628   -1.0086467 
C    -1.0700098   -2.0885606    5.1052592 
C     4.3357419    3.4338175    4.1901521 
C     0.4344359    3.1753018   -6.1777408 
C     1.7942109    1.5043706   -4.9672506 
C     1.2250555    3.6651358   -3.8151896 
C    -1.2035550   -7.5067324   -0.4973074 
C    -0.9603167   -5.5821782    1.0374224 
C     1.0244448   -6.3134891   -0.3221104 
C    -5.0469465    2.7825640   -4.6099850 
C    -4.3220421    0.8119341   -6.0089551 
C    -5.3842376    0.4690766   -3.7523815 
C    -2.3415236   -5.3242203   -5.7904688 
C    -3.6238734   -3.2564757   -5.2651387 
C    -4.2966199   -5.4053025   -4.1745951 
C    -2.2228126    4.0149676    4.4001670 
C    -0.2777792    3.9347844    5.9752690 
C    -2.5080127    2.9100190    6.6072054 
C     6.5120365    3.2323115   -0.7474215 
C     4.7225553    2.0596264   -1.9910199 
C     4.5483160    4.5388771   -1.7277107 
C    -0.8944012   -3.1399981    3.9838488 
C    -0.1218007   -2.4821491    6.2669372 
C    -2.5451441   -2.1630857    5.5818467 
C     3.4939784    2.6996135    5.2621466 
C     5.8041678    2.9598908    4.3549398 
C     4.2292747    4.9517869    4.4848483 
C    -2.2970202    4.4401384   -4.8226888 
C    -0.5768115   -7.2634241   -3.6423516 
C    -0.2997718    0.6077835    7.6047705 
C     5.5513914    5.6970962    1.4131313 
H    -2.6736510   -2.9686595    0.0673158 
H     0.8621064    3.7299766   -0.1510223 
H    -4.2587487   -2.8839908    2.0011253 
H    -0.7940626    5.2685879   -1.2313501 
H     0.6965283    0.8042382   -2.7342411 
H    -0.0738555   -3.4831973   -0.2272401 
H    -3.4653990   -0.2042895   -2.5013344 
H    -2.3570769   -2.1355681   -3.6005887 
H    -0.4427748    2.9018009    2.9864907 
H     2.6096187    1.9644267   -0.7748234 
H     0.0152091   -1.3481693    2.6640787 
H     2.0659269    2.0760681    3.4764547 
H    -5.4176345    1.4905385    3.7741856 
H    -3.8281051    0.9605074    4.5134678 
H    -5.0421076    4.2561132    0.0140113 
H    -5.4141140    3.6916548   -1.6874943 
H    -0.0699255    2.4527509   -6.8397036 
H     1.4113013    3.4299771   -6.6254657 
H    -0.1656970    4.0946453   -6.1587503 
H     2.6674442    1.9681857   -5.4569429 
H     2.1510443    1.0734995   -4.0171496 
H     1.4403178    0.6784829   -5.6083495 
H     0.4906866    4.4737424   -3.6629548 
H     1.4542680    3.2383501   -2.8232474 
H     2.1487608    4.1113091   -4.2245889 
H    -1.0348663   -8.0793832    0.4316616 
H    -2.2902313   -7.4005666   -0.6448029 
H    -0.8026444   -8.1084937   -1.3240420 
H    -2.0477962   -5.3916166    1.0545877 
H    -0.7315200   -6.3282609    1.8181368 
H    -0.4473198   -4.6481728    1.3193190 
H     1.5341298   -5.3547022   -0.1198509 
H     1.3094541   -7.0269001    0.4715124 
H     1.4067153   -6.6976893   -1.2827945 
H    -4.6048691    3.4010006   -5.4023811 
H    -6.1278193    2.6943607   -4.8171817 
H    -4.9275521    3.3081456   -3.6489226 
H    -5.3219446    0.8052544   -6.4792510 
H    -3.6535901    1.4398789   -6.6206846 
H    -3.9347463   -0.2218001   -6.0078078 
H    -5.0755637   -0.5902244   -3.7559966 
H    -6.3884540    0.5162680   -4.2065765 
H    -5.4657990    0.8040233   -2.7027943 
H    -2.9841756   -5.3618043   -6.6878698 
H    -1.4047555   -4.8081398   -6.0639241 
H    -2.1093765   -6.3598073   -5.5070885 
H    -4.2963751   -3.4987444   -6.1054153 
H    -2.8152691   -2.6149080   -5.6589670 
H    -4.2079329   -2.6705489   -4.5344836 
H    -4.9770219   -5.6013727   -5.0228024 
H    -4.8621422   -4.8550303   -3.4017145 
H    -3.9738610   -6.3705056   -3.7552469 
H    -2.6528067    4.8980008    4.9033113 
H    -3.0342095    3.4649832    3.8969641 
H    -1.5406854    4.3903323    3.6191139 
H     0.3014320    3.3698140    6.7242855 
H     0.4032631    4.1923182    5.1450979 
H    -0.6155515    4.8761817    6.4441654 
H    -2.9418622    3.8862609    6.8857363 
H    -2.0537747    2.4809203    7.5099224 
H    -3.3338076    2.2456963    6.3020562 
H     6.8088721    2.3299734   -0.1850922 
H     6.8598889    4.1050755   -0.1808356 
H     7.0419218    3.2216187   -1.7159752 
H     5.3915485    2.1606854   -2.8622686 
H     4.9299089    1.0839115   -1.5164288 
H     3.6916208    2.0482731   -2.3820955 
H     4.7284960    5.4341799   -1.1140810 
H     5.1070860    4.6573707   -2.6734920 
H     3.4716776    4.5055154   -1.9670722 
H    -1.1857939   -4.1322105    4.3692608 
H     0.1520671   -3.2116718    3.6427063 
H    -1.5319124   -2.9176207    3.1113355 
H    -0.3475113   -1.9215459    7.1849822 
H     0.9329022   -2.3080960    5.9916834 
H    -0.2443791   -3.5557670    6.4972475 
H    -3.2374498   -1.9194276    4.7583323 
H    -2.7310833   -1.4661085    6.4126200 
H    -2.7719969   -3.1875279    5.9277228 
H     3.9276049    2.9012541    6.2567083 
H     3.4917182    1.6068010    5.1094933 
H     2.4477683    3.0468068    5.2832776 
H     6.4804514    3.4876238    3.6678511 
H     6.1388278    3.1422806    5.3916962 
H     5.8870913    1.8770081    4.1566391 
H     4.9053131    5.5436269    3.8524521 
H     4.5018287    5.1473617    5.5373664 
H     3.1963211    5.3100082    4.3273195 
H    -1.2822536    4.8186880   -4.6027558 
H    -2.7616266    5.0795226   -5.5882581 
H    -2.8964480    4.4652880   -3.8963501 
H    -0.8542981   -8.3117875   -3.8280243 
H    -0.2686837   -6.7862673   -4.5891500 
H     0.2703710   -7.2220352   -2.9356601 
H    -0.1367659    1.6943188    7.7227499 
H     0.6457959    0.1350791    7.2830551 
H    -0.6190884    0.1840099    8.5688668 
H     6.1568786    6.2531255    2.1471900 
H     5.9696324    5.8748182    0.4057801 
H     4.5076310    6.0555930    1.4484732 
