213
Energy =
C    -3.0983897   -1.3663595    0.7753352 
C    -3.5227604   -0.7271247   -0.4316919 
C    -2.9490909   -1.0499507   -1.6813502 
H    -4.1731637    0.1552693   -0.3696007 
Pd   -1.3524794   -0.3958886   -0.1890361 
P     0.0490762    0.9184615   -1.4918564 
P     0.2503821   -0.8875594    1.4290509 
H    -2.7967684   -2.4206866    0.7197060 
H    -2.4030439   -2.0044499   -1.7574352 
C    -4.3174077   -0.0230714    4.6832919 
C    -4.2719270    0.8862617    3.6134324 
C    -3.8697699    0.4597707    2.3446908 
C    -3.5092837   -0.8896622    2.1104407 
C    -3.5474163   -1.7904970    3.1982889 
C    -3.9547925   -1.3605247    4.4681287 
H    -4.6359292    0.3098601    5.6764973 
H    -4.5485759    1.9337206    3.7722537 
H    -3.8169741    1.1878321    1.5269843 
H    -3.2635909   -2.8366020    3.0391031 
H    -3.9978578   -2.0764650    5.2945949 
C    -3.9872334    0.6553627   -5.4892260 
C    -2.7674011   -0.0165489   -5.3163716 
C    -2.4391679   -0.5633698   -4.0731724 
C    -3.3143762   -0.4376911   -2.9699868 
C    -4.5357259    0.2477468   -3.1561300 
C    -4.8690352    0.7833445   -4.4050687 
H    -4.2537957    1.0671789   -6.4680214 
H    -2.0689013   -0.1145868   -6.1538566 
H    -1.4812252   -1.0755100   -3.9439830 
H    -5.2480828    0.3302351   -2.3298253 
H    -5.8297294    1.2917969   -4.5365587 
O     4.7790736    0.9019881   -0.6223443 
O     3.7201140    2.1566192    2.1358283 
O     5.7803243   -1.1717845   -0.8228606 
O     3.0867146    4.3780272    2.3045367 
O     1.0024359    2.5048285    6.2901426 
O    -0.9508601   -6.2946114    3.7592093 
O     3.3085398   -1.7340666   -5.7073138 
O    -3.1921187    4.8482437   -4.6618083 
C     2.6170331    0.1153412    0.2911168 
C     2.0881086    1.5062585    0.3887544 
C     1.9313098   -1.0777639    0.6944496 
C     1.0408701    2.0482229   -0.4286146 
C     3.9126253   -0.0666580   -0.1816777 
C     2.6907246    2.4040354    1.2664202 
C     4.5204211   -1.3253427   -0.3057782 
C     2.3153634    3.7531679    1.3652043 
C     0.5522653    0.2330883    2.8355637 
C    -0.1503070   -2.5154580    2.1733204 
C     1.2122116    0.0600252   -2.5989740 
C    -0.9321924    2.0612419   -2.5300478 
C     2.5467486   -2.3355578    0.5656566 
C     0.6906431    3.4084063   -0.3346472 
C     3.8535806   -2.4881548    0.0504479 
C     1.3226093    4.2930660    0.5636487 
C     1.8567722    0.7265931    4.8580472 
C    -0.8023679   -4.8606964    1.7886042 
C    -0.0374369    2.2035265    4.1516593 
C    -0.6244478   -3.9483403    4.1039276 
C     1.7373566   -1.9758212   -3.8700777 
C    -1.2530917    3.4396981   -4.5250807 
C     3.0718702    0.1102415   -4.1876476 
C    -2.8005171    3.6599603   -2.5760083 
C     1.6147453   -0.0444910    3.7066984 
C    -0.4511084   -3.5837175    1.3138396 
C    -0.2349298    1.3751144    3.0347094 
C    -0.2983609   -2.6950240    3.5566361 
C     0.9851077   -1.2879890   -2.8976665 
C    -0.5190042    2.4890447   -3.7990667 
C     2.3015383    0.7254581   -3.1894265 
C    -2.0667413    2.6390083   -1.9448904 
C     0.9422694    1.7921458    5.1090805 
C    -0.7725306   -5.0449113    3.2035293 
C     2.6884079   -1.2054556   -4.5937936 
C    -2.4352516    3.9659161   -3.9191656 
C     6.0503503    0.2388555   -0.7321290 
C     3.8146295    3.3300816    2.9658158 
C     3.0895732    0.3440115    5.7267146 
C    -1.2125868   -5.9301016    0.7382893 
C    -0.8290008    3.5281483    4.2911132 
C    -0.8539792   -4.0871329    5.6307075 
C     1.4827886   -3.5010012   -4.0185608 
C    -0.7217670    3.9432139   -5.8898977 
C     4.3275350    0.8125374   -4.7591318 
C    -3.8634190    4.3962535   -1.7092519 
C     4.2659764   -0.0677352    4.7941064 
C     2.7476516   -0.8850065    6.6089664 
C     3.6233398    1.4935249    6.6175805 
C    -2.0286711   -5.2464773   -0.3971768 
C    -2.1304116   -7.0438832    1.3019056 
C     0.0580650   -6.5508191    0.1025430 
C    -1.8235220    3.4808351    5.4796289 
C     0.1618303    4.7077186    4.4793265 
C    -1.6484953    3.8135738    3.0103574 
C    -2.2412482   -4.7285545    5.8996745 
C    -0.8398536   -2.7024380    6.3226435 
C     0.2558052   -4.9435028    6.2928025 
C     1.5175856   -4.1278687   -2.5967779 
C     2.5434524   -4.2716457   -4.8422058 
C     0.0792721   -3.7449229   -4.6293879 
C    -0.4600330    5.4701689   -5.7962620 
C     0.6173915    3.2591086   -6.2548888 
C    -1.7127325    3.6499678   -7.0447572 
C     4.6030087    2.1398190   -4.0142017 
C     5.5498477   -0.1219026   -4.5504419 
C     4.1818259    1.1500380   -6.2650928 
C    -5.0954690    3.4850106   -1.4848737 
C    -3.2253130    4.6991321   -0.3211247 
C    -4.3232292    5.7677542   -2.2633666 
C     0.4013201    1.8616817    7.4238926 
C     0.1830457   -7.1717842    3.7193976 
C     2.4952417   -1.7276775   -6.8891298 
C    -4.4429221    4.3455648   -5.1469650 
H     2.0128420   -3.2301177    0.8968864 
H    -0.0991921    3.8031436   -0.9776024 
H     4.3233164   -3.4702143   -0.0421942 
H     1.0441681    5.3475418    0.6240247 
H     2.2673122   -0.8918709    3.4805717 
H    -0.4236949   -3.4064540    0.2340211 
H    -1.0042179    1.6112425    2.2960594 
H    -0.1590460   -1.8393896    4.2171585 
H     0.2038750   -1.8155253   -2.3397235 
H     0.3877240    2.0614530   -4.2276360 
H     2.5354513    1.7408463   -2.8621815 
H    -2.3497296    2.3177884   -0.9356875 
H     6.6494310    0.4408184    0.1789802 
H     6.5626704    0.5758444   -1.6453807 
H     4.8712699    3.6224663    3.0702379 
H     3.3434270    3.1200782    3.9462261 
H     4.0649244   -1.0030240    4.2454213 
H     5.1685826   -0.2407836    5.4049227 
H     4.4878252    0.7132750    4.0494268 
H     3.6278080   -1.1807912    7.2073627 
H     1.9178931   -0.6769729    7.3047409 
H     2.4557899   -1.7458343    5.9819960 
H     3.7759286    2.4192438    6.0376530 
H     2.9620450    1.7353905    7.4598378 
H     4.5985648    1.1906422    7.0373251 
H    -2.3808417   -6.0150320   -1.1059886 
H    -2.9144585   -4.7257524    0.0078337 
H    -1.4343248   -4.5229033   -0.9804747 
H    -2.9787653   -6.6157909    1.8616911 
H    -2.5353883   -7.6289380    0.4575477 
H    -1.6071238   -7.7438690    1.9662886 
H     0.6645603   -7.0934171    0.8460960 
H    -0.2201740   -7.2637170   -0.6943417 
H     0.6947748   -5.7675199   -0.3423362 
H    -1.3036892    3.5094329    6.4477011 
H    -2.4918157    4.3596023    5.4381841 
H    -2.4487496    2.5720033    5.4353407 
H    -0.3987400    5.6576963    4.5415615 
H     0.7504749    4.5899773    5.4014215 
H     0.8577925    4.7759476    3.6261586 
H    -2.4367081    3.0596099    2.8458049 
H    -1.0065186    3.8493752    2.1138157 
H    -2.1440916    4.7946808    3.1088178 
H    -2.4222650   -4.7815028    6.9880942 
H    -3.0453813   -4.1208271    5.4498955 
H    -2.3019181   -5.7443420    5.4832758 
H    -1.5906325   -2.0173797    5.8932417 
H     0.1471938   -2.2149873    6.2605824 
H    -1.0755337   -2.8347168    7.3926295 
H     0.1935002   -5.9988602    5.9924920 
H     0.1478568   -4.9050797    7.3915251 
H     1.2585878   -4.5583999    6.0355193 
H     1.3288877   -5.2128373   -2.6677401 
H     0.7541886   -3.7010290   -1.9258298 
H     2.5016146   -3.9728167   -2.1240385 
H     2.4797121   -4.0754972   -5.9216044 
H     3.5662907   -4.0342754   -4.5094331 
H     2.3740605   -5.3535301   -4.6976495 
H    -0.1100274   -4.8283073   -4.7322166 
H    -0.0129593   -3.2862129   -5.6291492 
H    -0.7180309   -3.3235809   -3.9915555 
H     0.2849646    5.6872948   -5.0103131 
H    -1.3865326    6.0174026   -5.5647361 
H    -0.0631154    5.8432160   -6.7575422 
H     0.9796266    3.6646108   -7.2148688 
H     1.4004072    3.4477030   -5.4996460 
H     0.5076182    2.1659324   -6.3742019 
H    -2.6167460    4.2700471   -6.9718379 
H    -1.2312892    3.8773925   -8.0124642 
H    -2.0074864    2.5860516   -7.0517468 
H     4.7067551    1.9911232   -2.9259311 
H     3.8037077    2.8828345   -4.1869818 
H     5.5431741    2.5766708   -4.3925096 
H     6.4775865    0.3964766   -4.8525521 
H     5.4519985   -1.0399062   -5.1495321 
H     5.6398338   -0.4167204   -3.4909960 
H     3.2527539    1.7143780   -6.4571049 
H     4.1865536    0.2449005   -6.8884111 
H     5.0320568    1.7782923   -6.5851519 
H    -5.8329802    3.9902769   -0.8362099 
H    -4.8033052    2.5379790   -0.9971504 
H    -5.5924086    3.2309358   -2.4364386 
H    -2.3144902    5.3135037   -0.4314481 
H    -3.9435502    5.2607129    0.3011815 
H    -2.9544286    3.7876186    0.2359214 
H    -3.4650355    6.3969227   -2.5488260 
H    -4.8870035    6.2907189   -1.4708470 
H    -4.9909473    5.6839774   -3.1315475 
H     1.0300818    1.0354038    7.8019176 
H     0.3104602    2.6321782    8.2043622 
H    -0.5986192    1.4653811    7.1708178 
H     1.1021142   -6.6482753    4.0393748 
H    -0.0384584   -7.9931181    4.4175396 
H     0.3391824   -7.5903439    2.7089131 
H     2.1960430   -0.6970876   -7.1564241 
H     1.5848222   -2.3410229   -6.7585917 
H     3.1132855   -2.1546152   -7.6930162 
H    -4.9614354    5.1995974   -5.6077260 
H    -4.2815505    3.5562108   -5.9021857 
H    -5.0609340    3.9310840   -4.3313070 
