213
Energy =
C     3.6127790   -0.8252922    0.1119126 
C     3.0649948   -2.1170242   -0.1619774 
C     2.4576055   -2.3840697   -1.4113581 
H     2.9845424   -2.8502066    0.6504503 
Pd    1.4425471   -0.6493058   -0.3246499 
P    -0.7894825   -1.1515555   -0.7924901 
P     1.0372827    1.5498956    0.3203627 
H     4.0325644   -0.2745998   -0.7418939 
H     2.7285995   -1.7119852   -2.2412585 
C     5.2092190    0.3601450    3.9315792 
C     4.1264446   -0.5341574    3.8755265 
C     3.5931972   -0.9197291    2.6415599 
C     4.1400617   -0.4301868    1.4331071 
C     5.2243889    0.4693398    1.5068303 
C     5.7528914    0.8639332    2.7410142 
H     5.6221872    0.6640742    4.8989447 
H     3.6913436   -0.9256573    4.8005326 
H     2.7313335   -1.5953344    2.6111722 
H     5.6587039    0.8578562    0.5824647 
H     6.5940710    1.5640878    2.7681590 
C     0.7235386   -6.0703280   -2.7706596 
C     0.9109025   -4.9956229   -3.6537157 
C     1.4537907   -3.7941422   -3.1878333 
C     1.8337078   -3.6448353   -1.8333078 
C     1.6202321   -4.7306443   -0.9537933 
C     1.0664502   -5.9271624   -1.4163033 
H     0.3087691   -7.0161720   -3.1336357 
H     0.6372927   -5.0953804   -4.7094224 
H     1.6013287   -2.9593650   -3.8812209 
H     1.8939179   -4.6424125    0.1005367 
H     0.9055774   -6.7543357   -0.7179464 
O    -3.4554739    3.3145598    0.0802791 
O    -3.0900582    2.2407505   -2.9438344 
O    -4.9183003    2.4106720    1.6224056 
O    -1.9028381    3.4648106   -4.5107131 
O    -2.4300459   -0.9633990   -6.5506155 
O    -2.0943103   -6.5953904    1.3841310 
O    -2.3188645    2.5929917    5.1667239 
O     5.9076214    5.0100798    0.9957682 
C    -2.1286869    1.2635506   -0.3273844 
C    -1.2477659    1.9564021   -1.3133859 
C    -2.0426334   -0.1120286    0.0591627 
C     0.1287546    2.3090329   -1.0963015 
C    -3.1586313    1.9871493    0.2639904 
C    -1.8024230    2.4109955   -2.5074106 
C    -4.0419042    1.4383059    1.2066865 
C    -1.0894397    3.1634334   -3.4538573 
C    -1.3254683   -1.0186097   -2.5346317 
C    -1.1506539   -2.8581297   -0.2293535 
C     0.0182439    1.8590881    1.8013407 
C     2.5435744    2.5624026    0.5742769 
C    -2.9209350   -0.6527411    1.0137825 
C     0.8190687    3.0933361   -2.0391618 
C    -3.9364218    0.1190907    1.6214230 
C     0.2263149    3.5401326   -3.2390184 
C    -0.7523570   -0.6081011   -4.8771745 
C    -2.2679435   -5.0320657   -0.4880198 
C    -3.1220325   -1.0570030   -4.2123863 
C    -0.8444220   -4.5623005    1.5094289 
C    -0.8318894    1.0926077    3.9710615 
C     4.6940227    3.3879271   -0.2726508 
C    -1.2580206    3.4258051    3.1823101 
C     3.9043612    4.0306732    2.0037178 
C    -0.3866292   -0.7043234   -3.5264340 
C    -1.9472647   -3.7441024   -0.9607235 
C    -2.6799991   -1.1297929   -2.8776704 
C    -0.5723638   -3.2920037    0.9774456 
C    -0.1154388    0.8680393    2.7765631 
C     3.5541305    2.5813276   -0.4041369 
C    -0.5253303    3.1376840    2.0228384 
C     2.7541695    3.2511478    1.7725648 
C    -2.1127757   -0.8995214   -5.2083964 
C    -1.7715294   -5.3877637    0.7993359 
C    -1.4766304    2.3518677    4.1010426 
C     4.8153358    4.1710719    0.9184978 
C    -4.7522016    3.4813233    0.6721055 
C    -3.0974588    2.6906571   -4.3118375 
C     0.2869527   -0.1506988   -5.9309084 
C    -3.1400241   -5.9372880   -1.4000299 
C    -4.6560515   -1.1301420   -4.4628788 
C    -0.1150422   -5.0459600    2.7892643 
C    -0.8085394   -0.0369530    5.0369540 
C     5.7690016    3.3920039   -1.3897853 
C    -1.6738558    4.8833935    3.5024202 
C     4.0606757    4.6574029    3.4159885 
C     0.6305101   -1.2882504   -6.9261447 
C     1.6079679    0.2851973   -5.2511618 
C    -0.2614676    1.0779224   -6.7042827 
C    -4.6409854   -5.6763910   -1.1029754 
C    -2.8014921   -7.4433788   -1.2632305 
C    -2.9048435   -5.5819025   -2.8941950 
C    -5.1133028   -0.4939178   -5.7996762 
C    -5.1309485   -2.6049321   -4.3973384 
C    -5.3977553   -0.3525575   -3.3366017 
C     0.6205925   -6.3853615    2.5164715 
C    -1.1061677   -5.2208497    3.9688485 
C     0.9568439   -4.0267192    3.2401570 
C    -1.2478856    0.3811349    6.4619027 
C     0.6597621   -0.5262683    5.1821409 
C    -1.6867337   -1.2179363    4.5524318 
C     7.1705122    3.0613620   -0.8113687 
C     5.4597655    2.3293480   -2.4718517 
C     5.8031779    4.7689812   -2.1019505 
C    -3.1865989    5.0537478    3.7959708 
C    -0.8669094    5.3320197    4.7510863 
C    -1.3238300    5.8277722    2.3289527 
C     3.3383664    6.0297522    3.4642664 
C     3.3838281    3.7420841    4.4768619 
C     5.5394505    4.7934142    3.8563423 
C    -2.6026490   -2.2853062   -7.0820817 
C    -3.3799258   -6.7273313    2.0056549 
C    -3.6415528    2.0563610    5.0044298 
C     5.6889394    6.4230029    0.8815986 
H    -2.8309316   -1.7088514    1.2829307 
H     1.8529448    3.3828340   -1.8396728 
H    -4.6156979   -0.3062496    2.3638617 
H     0.7741820    4.1535540   -3.9579618 
H     0.6438604   -0.5154853   -3.2178739 
H    -2.3241876   -3.4292870   -1.9337051 
H    -3.4129463   -1.2597488   -2.0774899 
H     0.1134854   -2.6160364    1.4965772 
H     0.3595398   -0.1018677    2.5972160 
H     3.4378618    1.9562690   -1.2918430 
H    -0.3613930    3.9116608    1.2702420 
H     2.0071040    3.1698218    2.5618518 
H    -5.5310400    3.3962104   -0.1130340 
H    -4.7974147    4.4474945    1.1946510 
H    -3.9816146    3.3237350   -4.4862893 
H    -3.0796749    1.8098044   -4.9838871 
H     0.9198087   -2.2106640   -6.3909906 
H     1.4812183   -0.9827127   -7.5608675 
H    -0.2130377   -1.5160855   -7.5926953 
H     2.2984320    0.6694555   -6.0212239 
H     1.4443911    1.0889492   -4.5117532 
H     2.1172508   -0.5564182   -4.7471945 
H    -1.1895595    0.8277892   -7.2398653 
H    -0.4666677    1.9153181   -6.0159684 
H     0.4867176    1.4181093   -7.4424048 
H    -5.2727483   -6.2961504   -1.7644287 
H    -4.9108529   -5.9070230   -0.0610146 
H    -4.8891170   -4.6156949   -1.2860209 
H    -3.0819421   -7.8711594   -0.2924123 
H    -3.3386792   -8.0044817   -2.0478032 
H    -1.7198472   -7.6113674   -1.4016359 
H    -1.8363078   -5.6374125   -3.1554098 
H    -3.4574571   -6.2993055   -3.5246392 
H    -3.2693312   -4.5765827   -3.1586859 
H    -4.8303605   -1.0817084   -6.6827277 
H    -6.2144255   -0.4150695   -5.7929657 
H    -4.7011044    0.5208389   -5.9280179 
H    -6.2196686   -2.6626206   -4.5749045 
H    -4.6284116   -3.2374494   -5.1478204 
H    -4.9262423   -3.0360347   -3.4021669 
H    -5.0268189    0.6810000   -3.2455833 
H    -5.2939642   -0.8331243   -2.3493169 
H    -6.4764349   -0.3233946   -3.5676467 
H     1.1191150   -6.7286825    3.4404115 
H    -0.0765636   -7.1667446    2.1819459 
H     1.4002931   -6.2535429    1.7457864 
H    -0.5448691   -5.3927207    4.9045867 
H    -1.7701130   -6.0830909    3.8208975 
H    -1.7243751   -4.3165188    4.1025058 
H     1.4911707   -4.4257397    4.1188646 
H     0.5196911   -3.0583330    3.5328829 
H     1.7089862   -3.8468427    2.4517093 
H    -0.9873979   -0.4374553    7.1562943 
H    -2.3296064    0.5504789    6.5514666 
H    -0.7285325    1.2937846    6.7947299 
H     1.0678715   -0.9319627    4.2444470 
H     1.3164704    0.3006726    5.5031484 
H     0.7117830   -1.3274436    5.9399639 
H    -1.6261372   -2.0583160    5.2667035 
H    -1.3628832   -1.5813153    3.5618754 
H    -2.7454187   -0.9190513    4.4642574 
H     7.1850046    2.0488415   -0.3704959 
H     7.4661365    3.7829992   -0.0368024 
H     7.9207325    3.0834609   -1.6217620 
H     6.2683363    2.3340485   -3.2223000 
H     5.4105688    1.3097148   -2.0479382 
H     4.5137623    2.5323199   -3.0051779 
H     6.1707258    5.5641175   -1.4393836 
H     6.4803375    4.7224306   -2.9736067 
H     4.7978462    5.0494746   -2.4637302 
H    -3.4435983    6.1275896    3.7854455 
H    -3.4585639    4.6547666    4.7825650 
H    -3.8002283    4.5479444    3.0335523 
H     0.2185177    5.2747002    4.5578478 
H    -1.1047061    4.6947308    5.6182885 
H    -1.1155991    6.3776613    5.0072354 
H    -1.8628338    5.5466723    1.4064223 
H    -0.2415910    5.8379632    2.1108107 
H    -1.6149188    6.8584719    2.5938082 
H     3.4016198    6.4574404    4.4809109 
H     2.2707123    5.9107447    3.2081930 
H     3.7711807    6.7581729    2.7614335 
H     3.7569492    2.7060321    4.4071335 
H     3.6147808    4.1290974    5.4840855 
H     2.2845647    3.7207666    4.3869504 
H     6.0531183    3.8194091    3.7885221 
H     5.5715003    5.1237106    4.9093040 
H     6.1125664    5.5135836    3.2586480 
H    -2.5959404   -2.1815582   -8.1776407 
H    -1.7791638   -2.9504860   -6.7646585 
H    -3.5643919   -2.7277667   -6.7658609 
H    -4.1252454   -7.1309916    1.2971386 
H    -3.2607728   -7.4422654    2.8354439 
H    -3.7342889   -5.7585202    2.3998244 
H    -3.6232690    0.9518164    4.9595537 
H    -4.1184378    2.4415569    4.0863125 
H    -4.2152237    2.3754795    5.8874579 
H     4.7972047    6.6405108    0.2677386 
H     5.5734769    6.8896211    1.8763528 
H     6.5837045    6.8454815    0.3967394 
