213
Energy =
C    -3.5419429   -1.4810708   -0.0128150 
C    -3.7873493   -0.5249158   -1.0247820 
C    -3.1153917   -0.5867074   -2.2843520 
H    -4.3897894    0.3611268   -0.7872527 
Pd   -1.6286656   -0.4041141   -0.6305223 
P     0.1682127    0.5611911   -1.7314306 
P    -0.6013250   -0.1821083    1.4715997 
H    -3.1279270   -2.4497356   -0.3336218 
H    -2.8439942   -1.5821927   -2.6656929 
C    -5.3798475   -1.6872761    3.8692943 
C    -4.7313932   -2.8016871    3.3166139 
C    -4.1262315   -2.7033183    2.0600504 
C    -4.1525789   -1.4962407    1.3265267 
C    -4.7906688   -0.3759218    1.9070608 
C    -5.3981963   -0.4730966    3.1621609 
H    -5.8688071   -1.7614959    4.8460304 
H    -4.6981570   -3.7510472    3.8608486 
H    -3.6295777   -3.5760363    1.6280815 
H    -4.8169526    0.5796097    1.3764473 
H    -5.8950162    0.4030471    3.5919318 
C    -3.4302075    2.4921938   -5.2817802 
C    -3.6026724    2.8150489   -3.9252636 
C    -3.4978069    1.8222888   -2.9456900 
C    -3.2318456    0.4786861   -3.2998696 
C    -3.0591891    0.1726752   -4.6671309 
C    -3.1505478    1.1675404   -5.6476283 
H    -3.5144128    3.2696881   -6.0478455 
H    -3.8130519    3.8485366   -3.6291359 
H    -3.6009724    2.0969787   -1.8912897 
H    -2.8532040   -0.8601317   -4.9620478 
H    -3.0038712    0.9058163   -6.7004736 
O     3.7731354    2.6764889    0.6252756 
O     1.1984074    4.1367827    2.0379963 
O     5.2174073    1.1543132    1.5977885 
O    -0.0731683    5.8052855    1.0558894 
O    -2.9333964    4.3057166    4.6915809 
O    -1.0772397   -5.1765896    4.7715839 
O     5.5913981   -1.9800684   -1.5629094 
O     1.1841442    0.3012759   -7.5780160 
C     1.6884143    1.3934977    0.9795184 
C     0.8523956    2.4180947    0.2873274 
C     1.2062149    0.1612626    1.5344567 
C     0.2076142    2.2259170   -0.9807568 
C     3.0558691    1.6104636    1.1053676 
C     0.6769653    3.6770073    0.8583213 
C     3.9322409    0.6826782    1.6896713 
C    -0.0933090    4.6898590    0.2650758 
C    -1.2499166    1.2590648    2.4034524 
C    -0.8407832   -1.6696234    2.5169246 
C     1.8293234   -0.1974419   -1.5597332 
C     0.1659814    0.6960008   -3.5560407 
C     2.0893668   -0.7604225    2.1212511 
C    -0.5844137    3.2408320   -1.5538090 
C     3.4797742   -0.5247659    2.1999182 
C    -0.7427800    4.5031532   -0.9460398 
C    -1.1069719    2.7191787    4.3787182 
C    -1.2690146   -2.7448998    4.6865151 
C    -2.8409390    3.1060883    2.6196629 
C    -0.9376862   -4.1197595    2.6297402 
C     4.2193926   -0.0720675   -2.0631986 
C     0.7753049    1.7695490   -5.6749726 
C     3.1884366   -2.2228423   -1.3232079 
C     0.2837372   -0.6757333   -5.5835631 
C    -0.6258396    1.6530759    3.5957631 
C    -1.1152255   -1.5956177    3.8859989 
C    -2.3074772    2.0275267    1.8960894 
C    -0.8009560   -2.9311293    1.8946398 
C     2.9521059    0.5204576   -2.0056981 
C     0.5377154    1.8267042   -4.2851325 
C     1.9496031   -1.5510952   -1.2474104 
C    -0.0122507   -0.5280524   -4.2237772 
C    -2.2936833    3.3597369    3.9160246 
C    -1.0723055   -4.0014540    4.0482395 
C     4.3255397   -1.4318423   -1.6325149 
C     0.7603797    0.4805953   -6.2763818 
C     5.0827915    2.5318815    1.1969172 
C     0.5460930    5.3966787    2.2872076 
C    -0.2907994    3.1023769    5.6465381 
C    -1.6425358   -2.5294418    6.1792148 
C    -3.9475803    3.9964932    1.9994844 
C    -1.0154311   -5.4898380    1.9071118 
C     5.3999518    0.6810022   -2.7255460 
C     1.0135628    3.1212956   -6.4037094 
C     3.1651493   -3.7617911   -1.1211538 
C     0.0610601   -2.0381535   -6.2860281 
C     1.2288363    2.9666693    5.3375520 
C    -0.6182553    2.1215963    6.8018793 
C    -0.5071616    4.5605631    6.1233934 
C    -2.5990328   -1.3098331    6.3025332 
C    -0.3614655   -2.2059017    6.9919434 
C    -2.3984822   -3.7242734    6.8126630 
C    -4.1961880    3.6183943    0.5203442 
C    -5.2955547    3.8407942    2.7487392 
C    -3.5029293    5.4833128    2.0250635 
C    -2.3327714   -6.2162678    2.2922404 
C     0.1923032   -6.3969171    2.2601034 
C    -1.0233124   -5.3077450    0.3715928 
C     6.6750342    0.7459083   -1.8454616 
C     5.0039944    2.1353747   -3.0727358 
C     5.7337724   -0.0608154   -4.0486096 
C     0.7668303    3.0682810   -7.9319748 
C     0.0009958    4.1650202   -5.8487226 
C     2.4439019    3.6422355   -6.1092291 
C     2.8578920   -4.0805277    0.3633620 
C     2.0312632   -4.3398377   -2.0178970 
C     4.4498190   -4.5140130   -1.5464869 
C    -0.9099156   -1.8530354   -7.4819267 
C     1.3972052   -2.6483437   -6.7845376 
C    -0.5692532   -3.0708111   -5.3212210 
C    -3.7420649    3.7855809    5.7572217 
C     0.1281318   -5.4912394    5.4823496 
C     6.1226255   -2.0377729   -0.2304615 
C     2.6066518    0.3286291   -7.7658825 
H     1.6893863   -1.6893920    2.5373390 
H    -1.1117760    3.0436025   -2.4906198 
H     4.1621045   -1.2525588    2.6449546 
H    -1.3490676    5.2899054   -1.4007042 
H     0.2752977    1.1233164    3.9142836 
H    -1.2339564   -0.6146317    4.3465226 
H    -2.6974185    1.7752927    0.9066112 
H    -0.6790623   -2.9714339    0.8085768 
H     2.8183753    1.5575159   -2.3198067 
H     0.6635997    2.7813000   -3.7705108 
H     1.0483073   -2.1015255   -0.9564981 
H    -0.3459836   -1.3913896   -3.6418758 
H     5.1712274    3.1832344    2.0898843 
H     5.8429176    2.7694887    0.4380745 
H     1.2950412    6.1449272    2.5908928 
H    -0.2352813    5.2547333    3.0598315 
H     1.5353134    1.9211161    5.1657564 
H     1.8076923    3.3326740    6.2028464 
H     1.5152657    3.5494251    4.4473421 
H    -0.0363690    2.3864230    7.7026382 
H    -1.6877245    2.1357502    7.0696513 
H    -0.3560044    1.0874343    6.5205477 
H    -0.3851498    5.2799130    5.2963460 
H    -1.4955976    4.7322699    6.5693256 
H     0.2494436    4.7955824    6.8921896 
H    -2.9247835   -1.2110185    7.3522432 
H    -2.1221468   -0.3568575    6.0234805 
H    -3.4906201   -1.4413523    5.6689934 
H     0.1434401   -1.3126428    6.5832990 
H    -0.6195191   -2.0029684    8.0467293 
H     0.3633158   -3.0361826    6.9722738 
H    -1.7653935   -4.6053020    6.9802088 
H    -2.7976948   -3.4106261    7.7930905 
H    -3.2476977   -4.0338028    6.1802924 
H    -4.6154504    2.6017402    0.4144095 
H    -4.9296286    4.3180078    0.0848556 
H    -3.2707679    3.6797560   -0.0773179 
H    -6.0922413    4.3656506    2.1922193 
H    -5.5828185    2.7777844    2.8316255 
H    -5.2556309    4.2761266    3.7567746 
H    -2.5690010    5.6245642    1.4557241 
H    -3.3411222    5.8313854    3.0561546 
H    -4.2843728    6.1130452    1.5632774 
H    -2.3759435   -7.1966712    1.7854245 
H    -2.3971591   -6.3797246    3.3779190 
H    -3.2144418   -5.6347603    1.9700505 
H     0.1239965   -6.7826209    3.2864901 
H     1.1452012   -5.8531364    2.1462984 
H     0.2130548   -7.2676357    1.5806459 
H    -1.8627636   -4.6731117    0.0340684 
H    -1.1414291   -6.2934187   -0.1092734 
H    -0.0834342   -4.8694569   -0.0014551 
H     7.3813833    1.4776186   -2.2759220 
H     7.1873419   -0.2247994   -1.7988892 
H     6.4365986    1.0631551   -0.8169496 
H     4.1620905    2.1781705   -3.7847396 
H     4.7249693    2.7090378   -2.1705438 
H     5.8616787    2.6415159   -3.5476931 
H     6.5606630    0.4514038   -4.5732505 
H     4.8546971   -0.0755316   -4.7179010 
H     6.0409111   -1.0998401   -3.8457535 
H    -0.2004154    2.5917807   -8.1627771 
H     1.5493942    2.5298819   -8.4831396 
H     0.7431783    4.1018719   -8.3197759 
H     0.1086345    5.1112907   -6.4065599 
H    -1.0351555    3.8060673   -5.9643693 
H     0.1646718    4.3963437   -4.7827939 
H     3.2188995    2.9456055   -6.4709504 
H     2.6040345    4.6171729   -6.6032580 
H     2.5976714    3.7806605   -5.0243947 
H     1.9058202   -3.6277963    0.6897450 
H     3.6530441   -3.6938782    1.0244551 
H     2.7891411   -5.1724725    0.5133257 
H     1.9709869   -5.4340977   -1.8840877 
H     2.2392119   -4.1329513   -3.0823138 
H     1.0391313   -3.9228170   -1.7810884 
H     5.2934377   -4.3516288   -0.8610912 
H     4.7710887   -4.2287629   -2.5605605 
H     4.2317944   -5.5970205   -1.5437600 
H    -1.0699903   -2.8211497   -7.9894957 
H    -0.5055513   -1.1366468   -8.2127549 
H    -1.8921828   -1.4861799   -7.1352684 
H     2.1482161   -2.6695010   -5.9746410 
H     1.2269245   -3.6871958   -7.1193343 
H     1.8076776   -2.0907566   -7.6373175 
H     0.0969682   -3.3089870   -4.4732784 
H    -0.7567934   -4.0090383   -5.8704619 
H    -1.5382655   -2.7277044   -4.9167285 
H    -4.3730270    2.9499211    5.4036606 
H    -3.1230832    3.4362795    6.6030689 
H    -4.3795524    4.6162845    6.0958142 
H     0.0688127   -6.5610438    5.7344572 
H     1.0191553   -5.3052518    4.8559139 
H     0.2128135   -4.9065588    6.4157109 
H     6.1511729   -1.0344717    0.2307899 
H     7.1437949   -2.4380764   -0.3195400 
H     5.5211889   -2.7075476    0.4123143 
H     3.1122530   -0.3593462   -7.0636165 
H     2.7872218    0.0023179   -8.8011552 
H     3.0165520    1.3448670   -7.6287233 
