213
Energy =
C     3.5901563   -0.8761362    0.3089549 
C     3.0558754   -2.1323737   -0.1148565 
C     2.5452664   -2.2837699   -1.4254885 
H     2.9079660   -2.9305472    0.6235578 
Pd    1.4607651   -0.6356964   -0.2748809 
P    -0.7312737   -1.0669533   -0.9532674 
P     1.0202849    1.5028606    0.5306872 
H     4.0776732   -0.2610178   -0.4608613 
H     2.8846685   -1.5472131   -2.1711172 
C     4.9006546   -0.0387036    4.3241201 
C     5.5438757    0.5472788    3.2243026 
C     5.1072655    0.2656286    1.9250050 
C     4.0181366   -0.6009060    1.6948226 
C     3.3706045   -1.1743163    2.8132338 
C     3.8115206   -0.9013322    4.1120116 
H     5.2412103    0.1772675    5.3420110 
H     6.3915566    1.2239285    3.3732466 
H     5.6184444    0.7177678    1.0715349 
H     2.5027224   -1.8253491    2.6609520 
H     3.2988881   -1.3560586    4.9656253 
C     0.9027225   -5.8193809   -3.2266278 
C     1.1639706   -4.6755331   -3.9968809 
C     1.6749381   -3.5246032   -3.3888376 
C     1.9486971   -3.4959864   -2.0011811 
C     1.6617965   -4.6502748   -1.2374150 
C     1.1398186   -5.7964201   -1.8425474 
H     0.5125964   -6.7256763   -3.7007535 
H     0.9735165   -4.6818646   -5.0753233 
H     1.8806196   -2.6356903   -3.9945448 
H     1.8526505   -4.6550631   -0.1614439 
H     0.9210488   -6.6783520   -1.2324648 
O    -3.4309093    3.3407844    0.0959758 
O    -2.8328901    2.5273642   -2.9717119 
O    -5.0143744    2.3257659    1.4362812 
O    -1.5174908    3.8635153   -4.3309150 
O    -1.9352108   -0.3738126   -6.7799587 
O    -2.2253620   -6.6629503    0.6383470 
O    -2.6984129    2.1815839    5.1729173 
O     5.8484885    4.8128596    1.9053214 
C    -2.0866744    1.3163666   -0.3830220 
C    -1.1264844    2.0799547   -1.2335675 
C    -2.0390830   -0.0883785   -0.1116844 
C     0.2311419    2.3944658   -0.8803900 
C    -3.1559003    1.9990701    0.1869919 
C    -1.5824190    2.6423478   -2.4234816 
C    -4.1130670    1.3821609    1.0077244 
C    -0.7919720    3.4628294   -3.2434856 
C    -1.1331830   -0.7792801   -2.7128011 
C    -1.1447789   -2.8107431   -0.5684441 
C    -0.1110967    1.6983261    1.9481868 
C     2.5089580    2.4670491    0.9926065 
C    -2.9919688   -0.6981118    0.7222339 
C     0.9985474    3.2475009   -1.6952955 
C    -4.0471658    0.0312438    1.3144720 
C     0.5050994    3.8026358   -2.8949628 
C    -0.3840960   -0.1817897   -4.9635967 
C    -2.2475465   -4.9424193   -1.0992094 
C    -2.8000379   -0.6516940   -4.5154041 
C    -0.9837189   -4.6602266    1.0362806 
C    -1.4796276    3.1618742    3.3538039 
C     4.7246504    3.3382199    0.3975987 
C    -1.1342177    0.7650687    3.9728584 
C     3.7629472    3.7749398    2.6565437 
C    -0.1206726   -0.3957315   -3.6025433 
C    -1.8858929   -3.6220964   -1.4327361 
C    -2.4590780   -0.8428444   -3.1628922 
C    -0.6650405   -3.3524707    0.6379175 
C    -0.6600132    2.9616594    2.2347868 
C     3.5935284    2.5632316    0.1021890 
C    -0.3289928    0.6307708    2.8220924 
C     2.6295567    3.0369973    2.2635916 
C    -1.7181709   -0.4257684   -5.4175240 
C    -1.8547679   -5.4124666    0.1874361 
C    -1.7774080    2.0181295    4.1588273 
C     4.7579303    4.0035273    1.6637556 
C    -4.7697623    3.4707552    0.5960758 
C    -2.7297514    3.0920093   -4.2924935 
C     0.7338177    0.3483081   -5.8958903 
C    -3.0479552   -5.7577627   -2.1510899 
C    -4.3120023   -0.6804155   -4.8825065 
C    -0.3611965   -5.2575962    2.3244959 
C    -1.9103243    4.5930584    3.7614384 
C     5.8813758    3.4363148   -0.6299500 
C    -1.2011040   -0.4496146    4.9387711 
C     3.8114406    4.2650032    4.1293731 
C     2.0040231    0.7078369   -5.0869244 
C     0.2530232    1.6449109   -6.6003003 
C     1.1418321   -0.7060704   -6.9563088 
C    -2.7159167   -7.2712619   -2.1256864 
C    -2.7042379   -5.2706421   -3.5858459 
C    -4.5675034   -5.5186858   -1.9438150 
C    -5.1270046    0.0175334   -3.7545006 
C    -4.6628513    0.0670230   -6.1936193 
C    -4.8053558   -2.1478084   -4.9701162 
C     0.3870775   -6.5781379    1.9994624 
C    -1.4450914   -5.5173511    3.4022562 
C     0.6762457   -4.2924855    2.9436030 
C    -3.4406398    4.7571791    3.9477382 
C    -1.4622562    5.6270286    2.7024094 
C    -1.2029488    4.9265120    5.1030511 
C     7.2347387    3.0377355    0.0162816 
C     5.6513640    2.4849166   -1.8290095 
C     5.9716841    4.8747223   -1.2019697 
C    -2.0481346   -1.5744336    4.2918826 
C     0.2482769   -0.9692139    5.1532750 
C    -1.7450699   -0.1451173    6.3563582 
C     3.1179901    5.6481453    4.2467441 
C     3.0270620    3.2787082    5.0419730 
C     5.2505393    4.3144953    4.7001109 
C    -2.0792991   -1.6453745   -7.4296440 
C    -3.5571559   -6.8412738    1.1393378 
C    -4.0077476    1.6763995    4.8656807 
C     5.6578273    6.2343363    1.9221919 
H    -2.9293364   -1.7745072    0.9049570 
H     2.0152200    3.5053416   -1.3914700 
H    -4.7843543   -0.4477948    1.9629917 
H     1.1118575    4.4678621   -3.5135821 
H     0.8854402   -0.2476590   -3.2043508 
H    -2.1850095   -3.2208467   -2.4010873 
H    -3.2504814   -1.0299165   -2.4326711 
H    -0.0191654   -2.7308782    1.2650768 
H    -0.4310947    3.7936321    1.5657471 
H     3.5439105    2.0254568   -0.8468393 
H     0.1499564   -0.3277070    2.5979058 
H     1.8222654    2.8923201    2.9812812 
H    -5.4843501    3.4599513   -0.2522142 
H    -4.8526171    4.3899811    1.1933223 
H    -3.5927816    3.7500826   -4.4798354 
H    -2.6659053    2.2713350   -5.0342615 
H     1.7921222    1.4486088   -4.2956921 
H     2.7520901    1.1465718   -5.7691432 
H     2.4688165   -0.1798816   -4.6204828 
H     1.0555684    2.0348278   -7.2516987 
H    -0.6354640    1.4534711   -7.2205966 
H     0.0050290    2.4247534   -5.8603651 
H     1.3829120   -1.6742825   -6.4815997 
H     0.3485296   -0.8648167   -7.7000913 
H     2.0400147   -0.3604356   -7.4983329 
H    -3.1989204   -7.7590305   -2.9903585 
H    -1.6271509   -7.4296728   -2.2070499 
H    -3.0578234   -7.7819497   -1.2166220 
H    -1.6190142   -5.3047071   -3.7711600 
H    -3.2053476   -5.9277420   -4.3170174 
H    -3.0532558   -4.2450074   -3.7856160 
H    -4.8039221   -4.4446987   -2.0475422 
H    -5.1464852   -6.0729040   -2.7042925 
H    -4.9142127   -5.8422914   -0.9505906 
H    -4.7552622    1.0355889   -3.5563227 
H    -6.1857981    0.0792260   -4.0593180 
H    -5.0988087   -0.5393363   -2.8028841 
H    -5.7605868    0.1644135   -6.2597366 
H    -4.2301861    1.0811461   -6.2107377 
H    -4.3235930   -0.4547519   -7.0981073 
H    -4.6784959   -2.6597995   -4.0006482 
H    -4.2554909   -2.7266215   -5.7307450 
H    -5.8786029   -2.1738879   -5.2300875 
H     0.8120780   -7.0008341    2.9271749 
H    -0.2858111   -7.3221987    1.5498157 
H     1.2237686   -6.3921396    1.3033180 
H    -0.9624797   -5.7826534    4.3598683 
H    -2.1060362   -6.3494887    3.1254893 
H    -2.0607538   -4.6165093    3.5677691 
H     1.1356699   -4.7699691    3.8254181 
H     0.2218912   -3.3468269    3.2811322 
H     1.4905120   -4.0563568    2.2357904 
H    -3.6901499    5.8312753    4.0054035 
H    -3.7924160    4.2820703    4.8734870 
H    -3.9942422    4.3225889    3.1002376 
H    -0.3659831    5.6415245    2.5717897 
H    -1.9279472    5.4302166    1.7200866 
H    -1.7671423    6.6358310    3.0288151 
H    -1.4659582    5.9499964    5.4259119 
H    -0.1058596    4.8730108    4.9918121 
H    -1.5122240    4.2220273    5.8922034 
H     7.2121008    1.9884597    0.3603831 
H     7.4755719    3.6804860    0.8746651 
H     8.0429437    3.1263139   -0.7314354 
H     6.5140965    2.5526131   -2.5132312 
H     5.5669959    1.4302323   -1.5093468 
H     4.7489104    2.7476270   -2.4096031 
H     6.2789237    5.6014006   -0.4378570 
H     6.7200145    4.9083822   -2.0139870 
H     4.9994314    5.1931816   -1.6185997 
H    -2.0487840   -2.4717692    4.9360222 
H    -1.6519098   -1.8590794    3.3018747 
H    -3.0947872   -1.2548585    4.1489813 
H     0.8842309   -0.1804411    5.5909584 
H     0.7237829   -1.3016630    4.2184661 
H     0.2363755   -1.8308773    5.8432706 
H    -2.8293130    0.0306329    6.3779801 
H    -1.2461934    0.7299529    6.8021691 
H    -1.5440747   -1.0216363    6.9977678 
H     3.0995013    5.9757018    5.3017549 
H     2.0750586    5.5854991    3.8890268 
H     3.6270593    6.4266580    3.6585214 
H     3.3796019    2.2419655    4.9064465 
H     3.1831553    3.5650284    6.0961398 
H     1.9388127    3.3008723    4.8625471 
H     5.7359721    3.3286003    4.6029680 
H     5.2034018    4.5674528    5.7737725 
H     5.8955416    5.0518666    4.2056094 
H    -2.0096969   -1.4499020   -8.5103428 
H    -1.2761990   -2.3399379   -7.1230133 
H    -3.0580366   -2.1070222   -7.2067754 
H    -4.2342769   -7.2057726    0.3460987 
H    -3.5013724   -7.6050791    1.9315697 
H    -3.9551119   -5.9009357    1.5599029 
H    -3.9928549    0.5790742    4.7313050 
H    -4.4094684    2.1415188    3.9486331 
H    -4.6462327    1.9291982    5.7253939 
H     4.7885596    6.5279257    1.3079251 
H     5.5211172    6.6030506    2.9546457 
H     6.5732514    6.6856122    1.5062109 
