213
Energy =
C     3.7852196   -0.7851322    0.0505882 
C     3.2758415   -2.0371596   -0.3655365 
C     2.5848538   -2.1841104   -1.6098295 
H     3.2839909   -2.8712842    0.3497143 
Pd    1.5274958   -0.7308094   -0.3147423 
P    -0.5706169   -0.7994071   -1.2977525 
P     0.6932861    0.5291040    1.4941471 
H     4.0018411   -0.0431322   -0.7347414 
H     2.9067167   -1.5473284   -2.4470613 
C     6.0377290   -0.3551603    3.6837064 
C     6.4687678    0.2583971    2.4980508 
C     5.6977452    0.1614519    1.3337334 
C     4.4998698   -0.5858159    1.3259361 
C     4.0642464   -1.1762411    2.5316529 
C     4.8234398   -1.0602290    3.6994810 
H     6.6409958   -0.2770957    4.5940431 
H     7.4131276    0.8120465    2.4783237 
H     6.0422178    0.6369122    0.4091324 
H     3.1097381   -1.7085090    2.5552886 
H     4.4635223   -1.5165254    4.6277170 
C     0.4533905   -5.7606754   -2.7235302 
C     1.0962665   -4.9831089   -3.6965927 
C     1.7990310   -3.8286467   -3.3296801 
C     1.8765440   -3.4274790   -1.9795016 
C     1.2242652   -4.2230209   -1.0086845 
C     0.5229212   -5.3760269   -1.3739305 
H    -0.1010738   -6.6590505   -3.0127325 
H     1.0485164   -5.2740611   -4.7500101 
H     2.2915171   -3.2246508   -4.0982386 
H     1.2418888   -3.9140338    0.0417501 
H     0.0230635   -5.9737549   -0.6041260 
O    -4.0840542   -0.0514211    2.5971157 
O    -4.3154683    1.8283798    0.2112386 
O    -4.6604436   -2.2776092    2.7725834 
O    -3.9448449    4.1093204    0.2288196 
O    -2.1107020    4.3829086   -3.8690857 
O    -1.4985319   -3.2404521   -6.6954735 
O    -1.5003467   -3.2101890    5.6548877 
O     4.8891474    3.9747625    4.0699895 
C    -2.3780840   -0.3107459    0.8124537 
C    -2.0208655    1.1341284    0.8305062 
C    -1.7872011   -1.3046639   -0.0330092 
C    -0.7267059    1.6685472    1.1573918 
C    -3.3515262   -0.7808137    1.6920468 
C    -3.0135313    2.0749938    0.5707722 
C    -3.6887613   -2.1374081    1.8119009 
C    -2.7882778    3.4593444    0.5749675 
C    -1.0897179    0.8268133   -1.9725997 
C    -0.8537508   -1.7722206   -2.8339131 
C     0.0388037   -0.6146222    2.7712975 
C     1.9456467    1.5790871    2.3251055 
C    -2.0733937   -2.6725566    0.1511492 
C    -0.5198702    3.0601723    1.1702393 
C    -3.0319476   -3.1198061    1.0841780 
C    -1.5402868    3.9870883    0.8673908 
C    -2.7082976    2.0903551   -3.3118826 
C    -2.2041534   -3.1370926   -4.3654496 
C    -0.4218349    2.9960070   -2.8832045 
C    -0.3035501   -1.7684869   -5.2248339 
C    -1.2250920   -0.9767960    4.8398925 
C     3.6325481    3.3542482    2.0889948 
C    -0.0574471   -2.8831834    3.7209861 
C     3.0808354    2.4126380    4.3313412 
C    -2.3534608    0.9559215   -2.5617198 
C    -1.9168673   -2.6428208   -3.0741041 
C    -0.1213729    1.8174401   -2.1821489 
C    -0.0729855   -1.3320384   -3.9172236 
C    -0.7413714   -0.1255267    3.8345428 
C     2.7093813    2.4465645    1.5324964 
C     0.3729626   -1.9730200    2.7339942 
C     2.1182906    1.5942693    3.7182234 
C    -1.7618502    3.1563016   -3.3421502 
C    -1.3299341   -2.7462145   -5.4170979 
C    -0.9328031   -2.3713635    4.7193397 
C     3.8814689    3.2362171    3.4846091 
C    -5.1435043   -0.9380603    2.9868204 
C    -4.9701411    3.1039563    0.3108351 
C    -4.0288381    2.0178130   -4.1300278 
C    -3.4790737   -4.0173871   -4.5074447 
C     0.6888521    4.0263254   -3.1968779 
C     0.4591510   -1.1081169   -6.4000996 
C    -1.9402841   -0.3867119    6.0823590 
C     4.1850816    4.4509349    1.1338761 
C     0.4773131   -4.3414757    3.6459321 
C     3.1736296    2.4785088    5.8762017 
C    -4.0783415    0.6228640   -4.8218956 
C    -4.1402692    3.0608624   -5.2686664 
C    -5.2555222    2.1429603   -3.1942290 
C    -4.6083587   -3.4394071   -3.6047234 
C    -3.1703688   -5.4547747   -4.0135737 
C    -4.0731749   -4.0612969   -5.9381101 
C     0.4610834    5.3507570   -2.4254373 
C     2.0769194    3.4712608   -2.8015913 
C     0.7296637    4.3029256   -4.7236920 
C    -0.5750459   -0.3959967   -7.3130871 
C     1.2767185   -2.1265029   -7.2341099 
C     1.4493809   -0.0335391   -5.8899127 
C    -2.1444162    1.1387378    5.9302153 
C    -1.0401185   -0.6463610    7.3202252 
C    -3.3378109   -1.0040123    6.3432194 
C     2.9481001    5.1686768    0.5197217 
C     5.0281274    5.5748305    1.7833125 
C     5.0190437    3.7934058    0.0058204 
C     0.4798898   -5.0887221    5.0038698 
C    -0.3337377   -5.1434916    2.5966192 
C     1.9617565   -4.3184731    3.1860887 
C     2.1361691    1.5423555    6.5355165 
C     4.5671786    2.0602571    6.4087761 
C     2.8560542    3.9291539    6.3287470 
C    -2.9486698    5.1733101   -3.0142052 
C    -1.0008843   -4.5624797   -6.9310581 
C    -2.6392908   -3.9627720    5.2064801 
C     6.2177914    3.4881544    3.8396884 
H    -1.5437771   -3.4153426   -0.4523057 
H     0.4629796    3.4514112    1.4431194 
H    -3.2558745   -4.1805753    1.2152986 
H    -1.3575019    5.0640160    0.8800395 
H    -3.0600499    0.1253350   -2.4754292 
H    -2.5794984   -2.9157551   -2.2533126 
H     0.8840623    1.6509645   -1.7847663 
H     0.7058956   -0.5901998   -3.7247329 
H    -0.9757519    0.9403165    3.8629551 
H     2.5504952    2.4439586    0.4477257 
H     0.9826108   -2.3283857    1.8967651 
H     1.4996535    0.9398220    4.3321292 
H    -6.0281918   -0.7610863    2.3412973 
H    -5.3728687   -0.7955788    4.0519395 
H    -5.4803296    3.1782291    1.2930462 
H    -5.6721785    3.2225711   -0.5262725 
H    -3.1867695    0.4616286   -5.4512727 
H    -4.9736886    0.5619404   -5.4648566 
H    -4.1329487   -0.2085969   -4.1010957 
H    -5.0005048    2.7892306   -5.9056843 
H    -4.3116380    4.0833444   -4.9041823 
H    -3.2356134    3.0693994   -5.8982830 
H    -5.2098554    1.4065611   -2.3734605 
H    -5.3087491    3.1525678   -2.7501928 
H    -6.1883516    1.9782266   -3.7622358 
H    -5.5318666   -4.0218639   -3.7635536 
H    -4.3753176   -3.4948166   -2.5281152 
H    -4.8193544   -2.3864889   -3.8595084 
H    -2.8096965   -5.4422116   -2.9698663 
H    -4.0802235   -6.0796523   -4.0603579 
H    -2.3926330   -5.9394607   -4.6277861 
H    -3.4810557   -4.6654975   -6.6379387 
H    -5.0783509   -4.5153684   -5.8857729 
H    -4.1738119   -3.0483463   -6.3613369 
H     0.3129949    5.1585907   -1.3486889 
H     1.3406049    6.0095457   -2.5384100 
H    -0.4148534    5.8922810   -2.8106176 
H     2.8544662    4.2094336   -3.0616271 
H     2.1578290    3.2796591   -1.7186226 
H     2.3080388    2.5328517   -3.3368030 
H     0.9213916    3.3688186   -5.2810130 
H     1.5465191    5.0108803   -4.9520769 
H    -0.2178190    4.7347708   -5.0777436 
H    -0.0591900    0.0864707   -8.1627314 
H    -1.3099299   -1.1127941   -7.7112008 
H    -1.1115744    0.3872317   -6.7489461 
H     1.9333675   -1.5854256   -7.9381571 
H     0.6249873   -2.7813403   -7.8284621 
H     1.9187895   -2.7512298   -6.5874543 
H     1.9410977    0.4430060   -6.7549681 
H     2.2437912   -0.4688574   -5.2557523 
H     0.9407795    0.7611851   -5.3163270 
H    -2.6364559    1.5304903    6.8365927 
H    -2.7868995    1.3762959    5.0633241 
H    -1.1898279    1.6805184    5.8163456 
H    -0.8986027   -1.7276531    7.4776651 
H    -0.0514661   -0.1750330    7.1928130 
H    -1.5110125   -0.2200648    8.2243226 
H    -3.8784365   -0.3877175    7.0827405 
H    -3.2699565   -2.0229311    6.7463507 
H    -3.9354596   -1.0273030    5.4188394 
H     2.3646168    5.6719777    1.3106817 
H     2.2759408    4.4765463   -0.0091181 
H     3.2748686    5.9331932   -0.2069633 
H     5.1774200    6.3678027    1.0289953 
H     4.5215250    6.0170142    2.6545343 
H     6.0272775    5.2392507    2.0952038 
H     4.4393253    3.0339811   -0.5474371 
H     5.3519093    4.5574514   -0.7189395 
H     5.9158562    3.2997332    0.4191383 
H     1.0713403   -6.0146606    4.8932488 
H    -0.5222861   -5.3780424    5.3456026 
H     0.9444599   -4.4765564    5.7944151 
H    -0.3081353   -4.6389796    1.6160078 
H    -1.3916460   -5.2430808    2.8894660 
H     0.0867165   -6.1584462    2.4796217 
H     2.5801283   -3.7131434    3.8711044 
H     2.0899599   -3.9226557    2.1653380 
H     2.3606443   -5.3469208    3.1825270 
H     2.2061983    1.6371004    7.6324573 
H     2.3105183    0.4818818    6.2796166 
H     1.1038026    1.8038307    6.2476108 
H     5.3354931    2.8080302    6.1692083 
H     4.5271753    1.9662945    7.5085276 
H     4.8723295    1.0849032    5.9931532 
H     3.5836472    4.6421154    5.9111789 
H     2.8940246    3.9953558    7.4310934 
H     1.8431840    4.2243636    6.0018802 
H    -3.1484925    6.1093538   -3.5566380 
H    -3.9017017    4.6616637   -2.7908926 
H    -2.4403857    5.3940580   -2.0577936 
H    -1.4401525   -5.2954298   -6.2317707 
H    -1.2864189   -4.8214017   -7.9615808 
H     0.0998618   -4.5942652   -6.8374877 
H    -2.3330830   -4.8192628    4.5790418 
H    -3.3380165   -3.3285303    4.6346230 
H    -3.1345672   -4.3447551    6.1120395 
H     6.4000811    3.3007754    2.7665329 
H     6.9025384    4.2683425    4.2046399 
H     6.3914592    2.5487466    4.3930299 
