213
Energy =
C    -3.2073891   -1.5770780    0.5668761 
C    -3.5406925   -0.8605913   -0.6268570 
C    -2.9028510   -1.1772604   -1.8482614 
H    -4.1651371    0.0390280   -0.5610604 
Pd   -1.3928739   -0.6029903   -0.2419642 
P     0.0307045    0.8117892   -1.4185097 
P     0.0920428   -1.1035152    1.4800278 
H    -2.9436070   -2.6369928    0.4600588 
H    -2.4291063   -2.1701993   -1.9116288 
C    -4.5439434   -0.4455311    4.5015763 
C    -4.2365757   -1.7815395    4.2073503 
C    -3.7926440   -2.1439131    2.9290359 
C    -3.6669672   -1.1741796    1.9096705 
C    -3.9730857    0.1718759    2.2225434 
C    -4.4066064    0.5319448    3.5014367 
H    -4.8867724   -0.1657508    5.5029699 
H    -4.3441127   -2.5491120    4.9794923 
H    -3.5406425   -3.1881548    2.7131176 
H    -3.8492187    0.9469397    1.4595288 
H    -4.6363844    1.5795295    3.7228425 
C    -3.4530975    0.6261712   -5.7050590 
C    -4.0838511    1.1904281   -4.5845768 
C    -3.9106326    0.6228869   -3.3193586 
C    -3.0916356   -0.5159299   -3.1448796 
C    -2.4382449   -1.0539158   -4.2788771 
C    -2.6216103   -0.4936743   -5.5466180 
H    -3.6083612    1.0610340   -6.6975897 
H    -4.7195361    2.0740640   -4.6988341 
H    -4.4243147    1.0648033   -2.4620163 
H    -1.7884224   -1.9279308   -4.1585692 
H    -2.1181554   -0.9332429   -6.4141295 
O     4.6138947    0.0134860   -1.0485849 
O     4.1119071    1.3667872    1.9007427 
O     5.2884758   -2.1942483   -1.2532202 
O     3.8111469    3.6344114    2.2400026 
O     1.2979113    2.9249536    5.7421758 
O    -1.1350570   -6.3426850    4.1064127 
O     3.4641580   -1.5922917   -5.6919425 
O    -3.1222079    5.3161093   -3.8276101 
C     2.5108346   -0.4233508    0.1862996 
C     2.2087124    1.0313570    0.3484905 
C     1.7339612   -1.4985346    0.7375751 
C     1.1546338    1.7498745   -0.3050152 
C     3.6832618   -0.8037291   -0.4617183 
C     3.0376118    1.7980662    1.1634097 
C     4.1016177   -2.1391852   -0.5783725 
C     2.8550962    3.1747613    1.3685466 
C     0.4607678    0.1191783    2.7757550 
C    -0.4187265   -2.6420196    2.3314336 
C     1.1594201    0.0937873   -2.6586153 
C    -0.9656142    2.0998709   -2.2605110 
C     2.1799574   -2.8287945    0.6369697 
C     0.9782566    3.1287823   -0.0913988 
C     3.3762463   -3.1800749   -0.0228076 
C     1.8246370    3.8729208    0.7586302 
C     1.7718850    0.7325844    4.7592595 
C    -1.0891259   -4.9979376    2.0766398 
C    -0.0095929    2.2506711    3.8682165 
C    -0.8868088   -3.9657601    4.3381772 
C     1.8965793   -1.8781900   -3.9039039 
C    -1.4307121    3.5840010   -4.1632892 
C     2.9873303    0.3427662   -4.2819006 
C    -2.8195977    3.6998269   -2.0919303 
C     1.4789211   -0.1457044    3.7014016 
C    -0.7489929   -3.7472026    1.5322189 
C    -0.2914884    1.2952263    2.8787476 
C    -0.5630445   -2.7430045    3.7229425 
C     1.0759467   -1.2765274   -2.9391165 
C    -0.7028310    2.5377919   -3.5619777 
C     2.1463318    0.8696308   -3.2820540 
C    -2.0565518    2.6485475   -1.5605834 
C     1.0549796    1.9690566    4.7791504 
C    -1.0253230   -5.1098324    3.4966739 
C     2.7744014   -1.0223794   -4.6406171 
C    -2.4272006    4.2174434   -3.3658969 
C     5.5112064   -0.8663142   -1.7529788 
C     4.7759629    2.5686411    2.3225254 
C     2.7933067    0.2615793    5.8325415 
C    -1.5139882   -6.1110000    1.0789505 
C    -0.9006816    3.5102126    3.9996600 
C    -1.0942126   -4.0292884    5.8732381 
C     1.8606431   -3.4150961   -4.0970240 
C    -1.0730137    3.9659499   -5.6254086 
C     4.0578176    1.2910053   -4.8951473 
C    -4.0454687    4.2433427   -1.3141947 
C     2.8664129   -1.2904773    5.8646713 
C     2.3780726    0.6964269    7.2610688 
C     4.2211936    0.7572441    5.4870945 
C    -0.2656558   -6.6330385    0.3209589 
C    -2.4918763   -5.4947084    0.0366482 
C    -2.2761431   -7.2963561    1.7207010 
C    -0.0837149    4.8291745    4.0123817 
C    -1.8914532    3.6098897    2.8168807 
C    -1.7221120    3.3892770    5.3105488 
C    -1.1709117   -2.6068425    6.4803053 
C     0.0801800   -4.7708560    6.5619799 
C    -2.4288341   -4.7457803    6.2094030 
C     3.2933478   -3.9902890   -3.9386841 
C     1.2843115   -3.8057202   -5.4814723 
C     0.9698682   -4.0861425   -3.0218978 
C     0.0530984    5.0339021   -5.6232232 
C    -0.5240257    2.7272084   -6.3852438 
C    -2.2977533    4.4544886   -6.4394213 
C     3.4086410    2.1717894   -5.9947330 
C     4.5934041    2.2528827   -3.7954024 
C     5.2935031    0.5595535   -5.4786641 
C    -5.3089424    4.2613459   -2.2152278 
C    -4.3802121    3.3473183   -0.0995725 
C    -3.7555372    5.6638972   -0.7658723 
C     2.4899356    3.7190674    5.6447486 
C     0.0518417   -7.1466087    4.0607257 
C     2.9607999   -1.3083974   -7.0054803 
C    -2.4797823    6.5975765   -3.7992200 
H     1.5893923   -3.6281189    1.0902374 
H     0.1724576    3.6508755   -0.6144418 
H     3.7140667   -4.2167862   -0.0885426 
H     1.6864860    4.9455060    0.9119434 
H     2.0406341   -1.0769846    3.6028020 
H    -0.7312940   -3.6289549    0.4430613 
H    -1.0954302    1.4589551    2.1583377 
H    -0.4115391   -1.8532004    4.3349153 
H     0.3625530   -1.8745648   -2.3675047 
H     0.0892561    2.0495355   -4.1300032 
H     2.2636820    1.9115833   -2.9748137 
H    -2.3000394    2.2407025   -0.5746940 
H     6.5522147   -0.5652352   -1.5551615 
H     5.2715759   -0.8382924   -2.8337157 
H     5.6190835    2.7838862    1.6348973 
H     5.1125941    2.4580298    3.3627115 
H     1.8691584   -1.7412803    6.0029974 
H     3.5012705   -1.6019293    6.7116512 
H     3.3157235   -1.7161766    4.9514920 
H     3.0741297    0.2497289    7.9926570 
H     2.3803737    1.7844671    7.4045700 
H     1.3608061    0.3341805    7.4916451 
H     4.5152365    0.3892956    4.4890308 
H     4.2951995    1.8549299    5.4886408 
H     4.9452548    0.3715897    6.2269101 
H    -0.5585138   -7.4012588   -0.4169529 
H     0.2425269   -5.8149182   -0.2207477 
H     0.4665789   -7.0862566    1.0109900 
H    -2.0214459   -4.7098393   -0.5805098 
H    -2.8379452   -6.2826764   -0.6540387 
H    -3.3781717   -5.0629596    0.5338032 
H    -2.7086251   -7.9131591    0.9132877 
H    -1.6312048   -7.9513592    2.3218508 
H    -3.0989284   -6.9443164    2.3640234 
H     0.6954581    4.8234700    3.2314579 
H    -0.7581842    5.6812313    3.8153248 
H     0.3927698    5.0060129    4.9852047 
H    -2.5152122    4.5121340    2.9380481 
H    -1.3635918    3.6901334    1.8493859 
H    -2.5710847    2.7436501    2.7735226 
H    -2.3567695    2.4855082    5.2877941 
H    -2.3776791    4.2709836    5.4311626 
H    -1.0536102    3.3285156    6.1841067 
H    -1.4049902   -2.6876746    7.5555127 
H    -0.2157554   -2.0603530    6.3949788 
H    -1.9595613   -1.9983500    6.0050661 
H     1.0508736   -4.3315848    6.2711626 
H     0.0870889   -5.8418859    6.3125286 
H    -0.0184613   -4.6859990    7.6590353 
H    -3.2808911   -4.2199521    5.7457316 
H    -2.5837459   -4.7448014    7.3029618 
H    -2.4296864   -5.7862050    5.8547485 
H     3.2657101   -5.0914251   -4.0228984 
H     3.7114753   -3.7306204   -2.9513006 
H     3.9663923   -3.5963563   -4.7145575 
H     0.3083118   -3.3178397   -5.6563178 
H     1.9658592   -3.5355681   -6.2998406 
H     1.1312616   -4.8987831   -5.5258343 
H     1.0238931   -5.1817310   -3.1418990 
H    -0.0933079   -3.7992527   -3.1193872 
H     1.3053335   -3.8407316   -1.9994011 
H     0.9483989    4.6462576   -5.1054327 
H    -0.2478840    5.9638004   -5.1174583 
H     0.3386712    5.2869846   -6.6601223 
H    -0.3693066    2.9952408   -7.4444110 
H     0.4471447    2.3819437   -5.9969020 
H    -1.2306524    1.8836402   -6.3378266 
H    -2.6957542    5.4187110   -6.0988733 
H    -2.0053306    4.5628418   -7.4985546 
H    -3.1171899    3.7176730   -6.3841979 
H     2.6082672    2.7988119   -5.5663751 
H     2.9665499    1.5694167   -6.8049933 
H     4.1645734    2.8430904   -6.4398864 
H     5.4311715    2.8418952   -4.2060624 
H     4.9490155    1.7051607   -2.9078007 
H     3.8305362    2.9744838   -3.4580238 
H     5.0796471    0.0169675   -6.4085237 
H     5.7136141   -0.1664202   -4.7625017 
H     6.0743577    1.3073834   -5.7014734 
H    -5.1688482    4.8960498   -3.1009145 
H    -6.1691412    4.6428525   -1.6369252 
H    -5.5592589    3.2396873   -2.5521004 
H    -3.5711639    3.3293185    0.6477882 
H    -5.2831975    3.7356365    0.4010697 
H    -4.5960014    2.3091758   -0.4078311 
H    -2.8388046    5.6649028   -0.1494172 
H    -4.5949776    5.9989903   -0.1306932 
H    -3.6360608    6.4000937   -1.5724295 
H     3.2675268    3.3380497    6.3308194 
H     2.8730112    3.7387625    4.6101421 
H     2.2248579    4.7433195    5.9529193 
H     0.2755809   -7.4854637    3.0326175 
H     0.9230581   -6.5895732    4.4512525 
H    -0.1447590   -8.0221554    4.6973461 
H     3.3663092   -2.0868099   -7.6698692 
H     3.2995531   -0.3193148   -7.3629156 
H     1.8565394   -1.3404373   -7.0235538 
H    -1.6950939    6.6347139   -3.0231856 
H    -2.0366765    6.8388605   -4.7823301 
H    -3.2588085    7.3436444   -3.5727040 
