213
Energy =
C     3.5783377   -1.2783639    0.3469181 
C     3.0226025   -2.5083081   -0.0741867 
C     2.4719005   -2.6586341   -1.3839205 
H     2.8809768   -3.3113006    0.6602888 
Pd    1.3999752   -1.0396829   -0.2805348 
P    -0.6521169   -1.0388980   -1.3582767 
P     0.6668853    0.4713837    1.3641977 
H     3.9040541   -0.5851442   -0.4444469 
H     2.9176772   -2.0592775   -2.1914866 
C     5.4172833   -0.4119664    4.1346869 
C     4.5256081   -1.4937626    4.0339561 
C     3.8983184   -1.7829411    2.8187690 
C     4.1543412   -0.9971753    1.6714914 
C     5.0357965    0.0996367    1.7961589 
C     5.6619814    0.3918689    3.0115656 
H     5.9161815   -0.1972195    5.0852427 
H     4.3211077   -2.1180199    4.9101851 
H     3.2060213   -2.6271819    2.7646604 
H     5.2362829    0.7218792    0.9198086 
H     6.3446987    1.2450614    3.0770961 
C     0.3122231   -6.1427266   -2.7091894 
C     0.3601735   -5.8289836   -1.3402757 
C     1.0607810   -4.7014430   -0.8986632 
C     1.7439863   -3.8679982   -1.8152709 
C     1.6929589   -4.2041114   -3.1856266 
C     0.9785716   -5.3222390   -3.6308266 
H    -0.2425990   -7.0211332   -3.0543957 
H    -0.1606194   -6.4618901   -0.6134748 
H     1.0565445   -4.4517408    0.1669872 
H     2.2192615   -3.5750645   -3.9090110 
H     0.9406698   -5.5495665   -4.7009558 
O    -3.5467299   -0.7669325    3.0699470 
O    -4.5291062    1.0615305    0.5424876 
O    -3.8182263   -3.0602165    3.2501422 
O    -4.4674527    3.3692387    0.4110491 
O    -2.8944919    3.9977814   -3.7016616 
O    -1.5001967   -3.3897779   -6.7864218 
O    -0.4446990   -2.1825346    6.6230741 
O     4.7424594    4.7429721    2.4828833 
C    -2.2548034   -0.7765501    0.9554743 
C    -2.1099737    0.7085957    0.9176246 
C    -1.7473886   -1.6755626   -0.0417843 
C    -0.8755854    1.4281509    1.0537727 
C    -2.9396062   -1.3819108    2.0076135 
C    -3.2426646    1.4945562    0.7392148 
C    -3.1054155   -2.7714732    2.1194855 
C    -3.2026513    2.8950477    0.6529523 
C    -1.3385952    0.5456504   -1.9729388 
C    -0.8811959   -2.0124694   -2.8914171 
C     0.2225885   -0.3726881    2.9312893 
C     1.9435790    1.7233656    1.7719298 
C    -1.8947883   -3.0702136    0.0967547 
C    -0.8444562    2.8299966    0.9698921 
C    -2.5893228   -3.6492830    1.1782557 
C    -2.0109367    3.5969650    0.7538062 
C    -3.2114165    1.7140208   -3.0254203 
C    -2.1467425   -3.4490006   -4.4258931 
C    -0.9505474    2.7705030   -2.9237317 
C    -0.1822452   -2.1388505   -5.2368124 
C    -0.7262285   -0.2235534    5.1968094 
C     3.1963238    3.0845111    3.3925788 
C     0.1496022   -2.3918807    4.3111613 
C     3.6941819    3.2356181    0.9514551 
C    -2.6778488    0.5825176   -2.3970212 
C    -1.9360122   -2.8891302   -3.1488565 
C    -0.4904664    1.6157981   -2.2553049 
C     0.0053752   -1.6789596   -3.9280810 
C    -0.4115076    0.3514759    3.9512756 
C     2.2249568    2.1114335    3.0856944 
C     0.4373644   -1.7480443    3.0970855 
C     2.7137436    2.2565799    0.7222251 
C    -2.3408480    2.8352638   -3.2022845 
C    -1.3085657   -2.9859581   -5.4811466 
C    -0.3278370   -1.5795228    5.3866177 
C     3.8528276    3.7056690    2.2926420 
C    -3.9051497   -1.8248269    3.9795821 
C    -5.3378543    2.2440685    0.6404477 
C    -4.6326453    1.6635045   -3.6394760 
C    -3.2603255   -4.5232955   -4.5591127 
C     0.1206230    3.8156977   -3.3364695 
C     0.8203250   -1.7340356   -6.3460775 
C    -1.4890840    0.6629088    6.2235095 
C     3.4593963    3.3854187    4.8934969 
C     0.3103402   -3.9278151    4.4407578 
C     4.5991941    3.7273149   -0.2078049 
C    -5.5516791    2.8277968   -3.1877505 
C    -5.3488883    0.3426419   -3.2711292 
C    -4.4687024    1.7156549   -5.1828848 
C    -2.8929152   -5.6261850   -5.5839537 
C    -4.6156690   -3.8555931   -4.9114537 
C    -3.4569775   -5.2575550   -3.2023959 
C    -0.3430276    4.8839828   -4.3567387 
C     0.6630939    4.5242330   -2.0701804 
C     1.2819746    3.0513058   -4.0369435 
C     1.4197249   -2.9948473   -7.0228572 
C     1.9998398   -0.9146987   -5.7687117 
C     0.1277320   -0.8358767   -7.4036063 
C    -2.2829385   -0.1376947    7.2862110 
C    -2.5313638    1.5395215    5.4694486 
C    -0.5006552    1.6265921    6.9292484 
C     3.2378164    2.0975992    5.7354088 
C     4.9130191    3.8353137    5.1855152 
C     2.4454053    4.4476099    5.3944384 
C    -1.0226345   -4.5558399    4.9281574 
C     0.6441574   -4.5657801    3.0716308 
C     1.4546210   -4.3039987    5.4163601 
C     6.0956698    3.5352292    0.1587301 
C     4.3387700    2.9169339   -1.4989867 
C     4.3336623    5.2194110   -0.5370756 
C    -3.1535146    4.9918210   -2.6984559 
C    -2.6014392   -2.8448895   -7.5259591 
C     0.5789335   -1.8459815    7.5713506 
C     4.1960985    6.0469802    2.7233731 
H    -1.4422770   -3.7331438   -0.6446014 
H     0.1119173    3.3483102    1.0839517 
H    -2.7096161   -4.7308660    1.2730113 
H    -1.9772037    4.6862127    0.6778530 
H    -3.3015581   -0.2987785   -2.2347755 
H    -2.6250268   -3.1463979   -2.3446017 
H     0.5623957    1.5386105   -1.9623361 
H     0.8426144   -1.0140994   -3.7000131 
H    -0.6820206    1.3932666    3.7619986 
H     1.6873494    1.6296150    3.9020325 
H     0.8219016   -2.3147762    2.2453004 
H     2.5481695    1.8768247   -0.2897846 
H    -4.9382119   -1.6738709    4.3303445 
H    -3.1811573   -1.8438829    4.8179720 
H    -5.7672261    2.3157603    1.6603265 
H    -6.1190712    2.2199566   -0.1335096 
H    -5.5221534    2.9597849   -2.0936194 
H    -6.5939730    2.6074898   -3.4787330 
H    -5.2668730    3.7778991   -3.6598156 
H    -6.3528630    0.3349555   -3.7286233 
H    -4.8089359   -0.5432678   -3.6485241 
H    -5.4701574    0.2361990   -2.1779619 
H    -3.9795177    2.6542448   -5.4909255 
H    -3.8581912    0.8656524   -5.5375208 
H    -5.4579250    1.6606785   -5.6725067 
H    -3.6583168   -6.4211519   -5.5500932 
H    -2.8253355   -5.2617370   -6.6167302 
H    -1.9184412   -6.0776858   -5.3273968 
H    -4.5884866   -3.3232226   -5.8735915 
H    -5.4120161   -4.6193839   -4.9678776 
H    -4.8966330   -3.1255593   -4.1317117 
H    -3.9032664   -4.6116416   -2.4268584 
H    -4.1484584   -6.1047962   -3.3491891 
H    -2.5007767   -5.6518631   -2.8178965 
H    -1.0249325    5.6288518   -3.9233017 
H     0.5490485    5.4281555   -4.7151467 
H    -0.8412001    4.4266395   -5.2259581 
H     1.4650449    5.2331511   -2.3424371 
H    -0.1355300    5.0904681   -1.5600133 
H     1.0735635    3.8027287   -1.3432350 
H     1.7447465    2.2852274   -3.3938602 
H     2.0747487    3.7625112   -4.3274100 
H     0.9163695    2.5499398   -4.9501184 
H     2.1286613   -2.6924357   -7.8142829 
H     1.9758599   -3.6045778   -6.2887298 
H     0.6349230   -3.6201392   -7.4723259 
H     2.7075421   -0.6812575   -6.5823380 
H     2.5585351   -1.4753859   -4.9976211 
H     1.6691101    0.0435920   -5.3312346 
H     0.8799635   -0.4472413   -8.1131951 
H    -0.3668788    0.0259885   -6.9211033 
H    -0.6209743   -1.3886252   -7.9863219 
H    -2.9408665    0.5595987    7.8335740 
H    -1.6422867   -0.6362771    8.0253907 
H    -2.9187427   -0.9098245    6.8216986 
H    -2.0592690    2.2878700    4.8108969 
H    -3.2047418    0.9269544    4.8491029 
H    -3.1356960    2.0962160    6.2062284 
H    -1.0403209    2.2600059    7.6556316 
H    -0.0142601    2.2915976    6.1951923 
H     0.2930126    1.0861853    7.4711075 
H     3.8547250    1.2660684    5.3586568 
H     2.1877218    1.7656070    5.7461251 
H     3.5212963    2.2987939    6.7827311 
H     5.0641118    3.8632577    6.2788495 
H     5.6360092    3.1196038    4.7588460 
H     5.1543251    4.8300374    4.7895167 
H     1.4100466    4.0906866    5.2515457 
H     2.5967512    4.6409350    6.4716261 
H     2.5443940    5.4053628    4.8594190 
H    -0.9139703   -5.6531362    4.9962211 
H    -1.8419918   -4.3354280    4.2235953 
H    -1.3017465   -4.1721641    5.9207729 
H     1.6331157   -4.2493473    2.6938916 
H    -0.1163339   -4.3202748    2.3108575 
H     0.6750725   -5.6632407    3.1801258 
H     1.2000662   -4.0617214    6.4573266 
H     2.3913409   -3.7835278    5.1488574 
H     1.6436979   -5.3910394    5.3655828 
H     6.7282813    3.8988453   -0.6705039 
H     6.3299716    2.4673340    0.3135668 
H     6.3606739    4.0880788    1.0713734 
H     3.3176348    3.0643510   -1.8862289 
H     5.0393059    3.2505606   -2.2830851 
H     4.5022231    1.8343211   -1.3481310 
H     3.2555969    5.4089168   -0.6753605 
H     4.8517953    5.4914720   -1.4739714 
H     4.7104634    5.8842426    0.2520135 
H    -3.6411891    5.8332709   -3.2132414 
H    -3.8179612    4.5976433   -1.9091205 
H    -2.2149495    5.3429630   -2.2303467 
H    -3.4561859   -3.5448269   -7.5315799 
H    -2.9209488   -1.8733872   -7.1091298 
H    -2.2566751   -2.7047471   -8.5635601 
H     0.4287464   -0.8340899    7.9886438 
H     1.5807738   -1.8990021    7.1077492 
H     0.5042889   -2.5854921    8.3829628 
H     4.0067230    6.2105992    3.7994473 
H     4.9514366    6.7726872    2.3831216 
H     3.2580244    6.1961211    2.1595188 
