213
Energy =
C    -2.9650119   -1.8151007    0.0028699 
C    -3.3756008   -0.8211021   -0.9452497 
C    -2.6892946   -0.6880983   -2.1742525 
H    -4.0990237   -0.0518169   -0.6480384 
Pd   -1.2786510   -0.4484095   -0.4128508 
P    -0.0872920    1.4438317   -1.0490430 
P     0.3460570   -1.3836456    0.9751172 
H    -2.5783152   -2.7645946   -0.3902058 
H    -2.0972984   -1.5571529   -2.5023722 
C    -4.3505095   -1.9779526    4.0791146 
C    -3.8562175   -3.1269064    3.4443387 
C    -3.4069613   -3.0679093    2.1186210 
C    -3.4536505   -1.8551634    1.3940932 
C    -3.9504998   -0.7021903    2.0500912 
C    -4.3962179   -0.7638823    3.3734537 
H    -4.7018206   -2.0268281    5.1149263 
H    -3.8280795   -4.0785419    3.9840846 
H    -3.0178103   -3.9686770    1.6315433 
H    -3.9717391    0.2585943    1.5242903 
H    -4.7783589    0.1393530    3.8605749 
C    -3.2136147    2.2234033   -5.2866964 
C    -4.0561612    2.2543206   -4.1640001 
C    -3.9022936    1.3206653   -3.1354746 
C    -2.9056455    0.3223744   -3.2169919 
C    -2.0679380    0.3001593   -4.3570065 
C    -2.2122987    1.2447429   -5.3770047 
H    -3.3432270    2.9536397   -6.0915413 
H    -4.8452183    3.0076765   -4.0930324 
H    -4.5705164    1.3611687   -2.2721281 
H    -1.2910518   -0.4662953   -4.4352651 
H    -1.5488486    1.2108998   -6.2476506 
O     4.5225686    1.4475898   -0.5859868 
O     3.6019586    1.3072856    2.7360734 
O     5.6035367   -0.3097957   -1.6416402 
O     2.8320642    3.1919514    3.8430310 
O     0.9670245   -0.1929201    6.7930025 
O    -0.4565906   -7.3370729    1.0541727 
O     3.5427552    0.8788028   -5.7755532 
O    -3.9415963    5.9638340   -1.9436963 
C     2.5570090    0.1658153    0.2011326 
C     1.9593309    1.3543225    0.8821379 
C     1.9993579   -1.1559512    0.1964718 
C     0.8504351    2.1157741    0.3831983 
C     3.7856675    0.3016941   -0.4375051 
C     2.5328536    1.8297512    2.0577847 
C     4.4464780   -0.7632415   -1.0703419 
C     2.0731680    2.9759031    2.7272324 
C     0.6107824   -0.8867953    2.7075761 
C     0.0646517   -3.1950983    1.0332749 
C     1.1062597    1.2929364   -2.4158095 
C    -1.2709220    2.7854180   -1.4519414 
C     2.6794221   -2.2207497   -0.4205052 
C     0.4137632    3.2747750    1.0507601 
C     3.9189931   -2.0455021   -1.0739156 
C     1.0206682    3.7332735    2.2391702 
C     1.9158297   -1.1686669    4.7689701 
C    -0.3262837   -5.2751891    2.2689876 
C    -0.0963288    0.3196039    4.7081578 
C    -0.4097655   -5.2603213   -0.2242799 
C     2.8394887    2.2434585   -3.8721213 
C    -3.2901183    3.9865352   -0.7168233 
C     2.0220422   -0.0949802   -4.2119381 
C    -1.8775173    4.8836748   -2.5694926 
C     1.7093969   -1.4143625    3.3994988 
C    -0.0852825   -3.8906625    2.2423199 
C    -0.2568419    0.0072372    3.3479754 
C    -0.1512267   -3.8782479   -0.1740256 
C     1.9735849    2.3365520   -2.7658397 
C    -2.3980752    2.9050160   -0.6211974 
C     1.1764107    0.0757501   -3.1067253 
C    -1.0287219    3.7705750   -2.4127541 
C     0.9320492   -0.3697861    5.4241784 
C    -0.3792896   -5.9601303    1.0187245 
C     2.7832172    1.0375297   -4.6353836 
C    -3.0436429    4.9361101   -1.7539246 
C     5.7793746    1.0298087   -1.1503433 
C     3.6521104    2.0201816    3.9870008 
C     3.1815957   -1.7909188    5.4241979 
C    -0.5755390   -5.9891345    3.6218285 
C    -0.9823995    1.4056929    5.3673984 
C    -0.7289010   -5.8771508   -1.6147640 
C     3.7843938    3.4400827   -4.1647120 
C    -4.4342798    4.0557817    0.3349860 
C     2.1196833   -1.4779608   -4.9016364 
C    -1.3803597    5.9794947   -3.5548873 
C     3.6696873   -1.0456749    6.6918496 
C     4.3620944   -1.7497073    4.4109597 
C     2.9147882   -3.2819558    5.7599126 
C    -0.6615989   -4.9676395    4.7819598 
C     0.5675117   -6.9786346    3.9640544 
C    -1.9272810   -6.7493637    3.5661822 
C    -0.0786272    2.4792375    6.0300481 
C    -1.8501996    2.1203988    4.3058452 
C    -1.9476936    0.8002902    6.4183420 
C    -1.6461988   -4.8976223   -2.4027751 
C    -1.5023289   -7.2180911   -1.5559071 
C     0.5854891   -6.0543507   -2.4182349 
C     5.1635804    2.9872755   -4.7098556 
C     4.0639416    4.2347151   -2.8587061 
C     3.1043585    4.4246039   -5.1533247 
C    -5.4952532    2.9746091    0.0071820 
C    -3.8344454    3.7492869    1.7365260 
C    -5.1431879    5.4266657    0.4638358 
C     1.5259755   -1.4322507   -6.3323176 
C     3.5985326   -1.9449895   -4.9479225 
C     1.3253596   -2.5473146   -4.1139821 
C    -1.2695957    5.3773019   -4.9788858 
C    -2.2278434    7.2695924   -3.6470926 
C     0.0305865    6.4225976   -3.0689542 
C     0.4385176   -1.2755383    7.5732306 
C     0.7576457   -8.0313242    0.7361511 
C     3.1028271    1.4931326   -6.9938519 
C    -4.9955621    5.6853192   -2.8655893 
H     2.2492633   -3.2249695   -0.3841804 
H    -0.4266802    3.8435098    0.6454380 
H     4.4412332   -2.8802140   -1.5468506 
H     0.6774373    4.6357842    2.7499038 
H     2.4153064   -2.0452665    2.8534039 
H    -0.0133150   -3.3390811    3.1795874 
H    -1.0623548    0.4587034    2.7644391 
H    -0.1271205   -3.3071896   -1.1082045 
H     1.9847085    3.2359663   -2.1466167 
H    -2.5572592    2.1390716    0.1464921 
H     0.5586245   -0.7507726   -2.7487101 
H    -0.1425109    3.6857373   -3.0460002 
H     6.5570389    1.0357509   -0.3607063 
H     6.0434985    1.6967328   -1.9854579 
H     4.6908949    2.3192254    4.1983291 
H     3.2342807    1.3780303    4.7868943 
H     3.7666543    0.0384631    6.5119463 
H     4.6649855   -1.4342876    6.9694885 
H     3.0084096   -1.1787170    7.5579364 
H     5.2832639   -2.0897773    4.9143381 
H     4.2032606   -2.4167024    3.5472415 
H     4.5302547   -0.7332833    4.0195958 
H     2.0875440   -3.4031041    6.4784090 
H     2.6543701   -3.8455662    4.8466850 
H     3.8181664   -3.7408678    6.1998289 
H    -0.9094486   -5.5049236    5.7135031 
H     0.2941964   -4.4427841    4.9475910 
H    -1.4456466   -4.2104400    4.6101084 
H     1.5516108   -6.4796658    3.9115089 
H     0.4331909   -7.3584293    4.9926240 
H     0.5726339   -7.8469170    3.2901722 
H    -2.1289198   -7.2247144    4.5427299 
H    -2.7567356   -6.0543778    3.3475326 
H    -1.9158265   -7.5300700    2.7915772 
H     0.6001955    2.9321156    5.2870808 
H    -0.7062969    3.2820898    6.4567032 
H     0.5294899    2.0452481    6.8377140 
H    -2.4200067    2.9322814    4.7896280 
H    -1.2353199    2.5697479    3.5076466 
H    -2.5794951    1.4356451    3.8414516 
H    -1.4135163    0.4492591    7.3123069 
H    -2.5195897   -0.0412340    5.9886257 
H    -2.6675563    1.5715846    6.7461442 
H    -1.9185729   -5.3504186   -3.3713449 
H    -2.5789007   -4.6947366   -1.8473942 
H    -1.1551496   -3.9355730   -2.6252493 
H    -2.3756802   -7.1478715   -0.8866626 
H    -0.8848404   -8.0615393   -1.2198992 
H    -1.8643448   -7.4592719   -2.5708317 
H     1.1136479   -5.0913435   -2.5262528 
H     0.3678741   -6.4424760   -3.4294078 
H     1.2727672   -6.7613693   -1.9238986 
H     5.8534471    3.8490239   -4.7134521 
H     5.1178131    2.5864389   -5.7305540 
H     5.5986698    2.1982417   -4.0721539 
H     3.1738529    4.7768826   -2.4964980 
H     4.4132891    3.5775316   -2.0450245 
H     4.8396187    4.9936871   -3.0575190 
H     3.7620595    5.2935882   -5.3343777 
H     2.1539856    4.7973037   -4.7344832 
H     2.8820462    3.9603376   -6.1253406 
H    -5.0506091    1.9634268    0.0148921 
H    -5.9458897    3.1412440   -0.9864414 
H    -6.3061015    2.9905955    0.7569280 
H    -4.6258382    3.8182502    2.5029002 
H    -3.4009827    2.7390243    1.8067538 
H    -3.0431251    4.4744810    1.9946657 
H    -5.7974266    5.6531091   -0.3895922 
H    -5.7787892    5.4015180    1.3669478 
H    -4.4216402    6.2517089    0.5707303 
H     2.1265344   -0.8086576   -7.0078332 
H     0.4928216   -1.0404904   -6.3191146 
H     1.4979261   -2.4511491   -6.7581531 
H     3.6568586   -2.9614480   -5.3768895 
H     4.0234403   -1.9726472   -3.9301817 
H     4.2128099   -1.2678547   -5.5583634 
H     0.2395065   -2.3424415   -4.1052078 
H     1.6730767   -2.6282640   -3.0698090 
H     1.4649956   -3.5294933   -4.5962505 
H    -0.6290414    4.4787694   -5.0053176 
H    -0.8401935    6.1226641   -5.6717751 
H    -2.2658982    5.0911844   -5.3566134 
H    -2.3859112    7.7345888   -2.6627297 
H    -1.6863245    7.9874795   -4.2889912 
H    -3.2105218    7.0974171   -4.1113674 
H    -0.0281684    6.8642918   -2.0589945 
H     0.4426537    7.1833891   -3.7552310 
H     0.7448593    5.5838416   -3.0304741 
H     1.1680122   -2.1002823    7.6667970 
H     0.2307390   -0.8659016    8.5735232 
H    -0.4941458   -1.6669792    7.1285569 
H     1.0028608   -7.9522424   -0.3383878 
H     1.6050495   -7.6400367    1.3278375 
H     0.5837885   -9.0877170    0.9901831 
H     2.0163541    1.6898034   -6.9739173 
H     3.3353773    0.7937096   -7.8135695 
H     3.6455597    2.4383188   -7.1751015 
H    -4.5966433    5.4406316   -3.8689494 
H    -5.6251270    4.8438023   -2.5163924 
H    -5.6075573    6.5976242   -2.9270956 
