213
Energy =
C    -3.0023565   -1.8631948    0.7734201 
C    -3.4374419   -1.1807430   -0.4074216 
C    -2.8451046   -1.4786285   -1.6574293 
H    -4.1046436   -0.3143428   -0.3154740 
Pd   -1.2976427   -0.7759186   -0.1436422 
P    -0.0372386    0.6047160   -1.5373963 
P     0.3309521   -0.9848485    1.5076341 
H    -2.6762040   -2.9054717    0.6536791 
H    -2.3285489   -2.4482513   -1.7372791 
C    -4.2934880   -0.8559250    4.7590759 
C    -4.2010738    0.1471192    3.7800092 
C    -3.7745894   -0.1678872    2.4861723 
C    -3.4434632   -1.4975627    2.1345513 
C    -3.5357278   -2.4938380    3.1306045 
C    -3.9576862   -2.1758087    4.4269360 
H    -4.6245439   -0.6085367    5.7729725 
H    -4.4580202    1.1811161    4.0307278 
H    -3.6777198    0.6295399    1.7416599 
H    -3.2739567   -3.5260042    2.8800149 
H    -4.0308072   -2.9650532    5.1811042 
C    -3.4602187    0.4236898   -5.4603550 
C    -2.5479850   -0.6335877   -5.3235276 
C    -2.3815652   -1.2558377   -4.0828025 
C    -3.1041158   -0.8222891   -2.9460004 
C    -4.0229935    0.2394917   -3.1015356 
C    -4.2019514    0.8479537   -4.3464807 
H    -3.5999999    0.9089056   -6.4315814 
H    -1.9678070   -0.9780221   -6.1861540 
H    -1.6706133   -2.0816490   -3.9833223 
H    -4.6060744    0.5913770   -2.2459090 
H    -4.9263770    1.6603639   -4.4479758 
O     4.4832215   -0.4008286   -1.7561252 
O     4.5820088    1.3286631    0.9104218 
O     5.1020558   -2.6323377   -1.6909542 
O     4.4814335    3.6383147    0.9059678 
O     1.3368769    3.3529870    5.4541934 
O    -1.0580624   -5.4484530    5.2875031 
O     2.7052929   -2.4236619   -5.9263649 
O    -3.6054782    4.9116341   -3.7428083 
C     2.6030857   -0.5550970   -0.1519932 
C     2.3938639    0.9219594   -0.1748971 
C     1.8994489   -1.4975451    0.6742192 
C     1.2733413    1.6135276   -0.7366625 
C     3.6530942   -1.0799041   -0.9019654 
C     3.4069381    1.7326210    0.3274423 
C     4.0390956   -2.4282909   -0.8564127 
C     3.3459149    3.1345908    0.3269160 
C     0.7462000    0.4634498    2.5313637 
C    -0.0479444   -2.3362267    2.6875321 
C     0.8849588   -0.2809590   -2.8456693 
C    -1.1361892    1.8616788   -2.2990648 
C     2.3235860   -2.8384755    0.7358365 
C     1.2132837    3.0186160   -0.7254196 
C     3.4053353   -3.3341359   -0.0217049 
C     2.2490685    3.8120764   -0.1844005 
C     0.0761109    2.6047240    3.5214283 
C    -0.2313765   -3.2151085    4.9669800 
C     2.2080980    1.4980378    4.1998585 
C    -0.6677036   -4.6976007    3.0072351 
C     1.4451178   -2.4255146   -3.8908684 
C    -1.6137915    3.5480764   -4.0206454 
C     2.4409317   -0.2993039   -4.7487829 
C    -3.0290771    3.3934276   -1.9714658 
C    -0.1477764    1.5340591    2.6301271 
C     0.0712384   -2.1734723    4.0746871 
C     1.9501965    0.4895091    3.2608328 
C    -0.4226026   -3.5875258    2.1774406 
C     0.7864258   -1.6787910   -2.9042325 
C    -0.8771168    2.4470568   -3.5404558 
C     1.7627952    0.3776166   -3.7158573 
C    -2.1888293    2.3666441   -1.5125160 
C     1.1913698    2.4831844    4.3924225 
C    -0.6719061   -4.4538708    4.4117429 
C     2.1840609   -1.6969621   -4.8747109 
C    -2.7546809    3.9365186   -3.2647473 
C     5.2411153   -1.4145744   -2.4423013 
C     5.3821469    2.5198522    0.9996704 
C    -0.8694745    3.8320202    3.4103299 
C     0.0039104   -3.0166317    6.4851974 
C     3.5750197    1.5785728    4.9223508 
C    -0.8511493   -6.0722562    2.3007448 
C     1.3853403   -3.9735045   -3.8577432 
C    -1.0282929    4.2684980   -5.2696994 
C     3.3997244    0.5385229   -5.6410951 
C    -4.1563336    3.9479136   -1.0655727 
C    -2.3135170    3.4164377    3.7818115 
C    -0.8334751    4.2962780    1.9269877 
C    -0.4730457    5.0746575    4.2431525 
C    -1.3062663   -3.1467528    7.3019219 
C     0.5885386   -1.6146512    6.7799659 
C     1.0364881   -4.0672919    6.9744043 
C     3.4527410    1.3938064    6.4564244 
C     4.5379787    0.4863835    4.4012149 
C     4.2032265    2.9657243    4.6187417 
C     0.2593422   -6.2115292    1.2175350 
C    -2.2293013   -6.1256148    1.5939982 
C    -0.6913480   -7.3078640    3.2211668 
C     2.8256861   -4.5504163   -3.8371278 
C     0.6093451   -4.5433165   -5.0725727 
C     0.6667320   -4.4700937   -2.5792026 
C    -1.1943325    3.3706713   -6.5213013 
C    -1.6033368    5.6762994   -5.5617808 
C     0.4918041    4.4936440   -5.0091806 
C     4.0900953    1.6313880   -4.7740472 
C     4.5409960   -0.2831133   -6.2914945 
C     2.5808670    1.2628030   -6.7422869 
C    -3.8380063    5.4288791   -0.7293475 
C    -5.5530411    3.8576997   -1.7334375 
C    -4.2499473    3.1602193    0.2608250 
C     0.4936313    3.0391152    6.5728530 
C    -2.4665965   -5.6947373    5.3692177 
C     2.0108338   -2.3154881   -7.1770959 
C    -4.4586292    4.5358639   -4.8315822 
H     1.8039418   -3.5340316    1.3972662 
H     0.3468488    3.5197141   -1.1649896 
H     3.7224281   -4.3772145    0.0458572 
H     2.1972155    4.9033371   -0.1840184 
H    -1.0348279    1.5343079    1.9868989 
H     0.3980255   -1.2089357    4.4626533 
H     2.6803158   -0.3058847    3.0951468 
H    -0.4893717   -3.7119745    1.0913391 
H     0.1870711   -2.1808338   -2.1409210 
H    -0.0476483    2.0689062   -4.1403249 
H     1.9430744    1.4447836   -3.5698886 
H    -2.3560489    1.9206955   -0.5275852 
H     6.3021218   -1.1212379   -2.4774630 
H     4.8177715   -1.5599677   -3.4557946 
H     6.0935555    2.5485345    0.1494965 
H     5.8989694    2.5432244    1.9706926 
H    -2.6696503    2.5892867    3.1465758 
H    -3.0036814    4.2691031    3.6517164 
H    -2.3747536    3.0809945    4.8319206 
H    -1.5336519    5.1376009    1.7832194 
H     0.1799941    4.6361800    1.6570724 
H    -1.1124835    3.4983217    1.2201353 
H    -0.6331664    4.9404797    5.3225991 
H     0.5789076    5.3570352    4.0821601 
H    -1.1113502    5.9177156    3.9232609 
H    -1.1206943   -2.8475588    8.3489041 
H    -2.0927131   -2.4887184    6.8929710 
H    -1.6746981   -4.1819642    7.3162333 
H    -0.1075321   -0.8037824    6.4991876 
H     0.7850408   -1.5268132    7.8622963 
H     1.5443941   -1.4478896    6.2539948 
H     1.9934351   -3.9495467    6.4356936 
H     1.2308060   -3.9280725    8.0531399 
H     0.6667046   -5.0917747    6.8156255 
H     2.9030146    0.4694921    6.7043986 
H     4.4622032    1.3158105    6.8979792 
H     2.9489499    2.2475183    6.9308332 
H     4.1809645   -0.5293784    4.6495136 
H     4.6803208    0.5460183    3.3087723 
H     5.5226796    0.6145918    4.8829435 
H     3.6017048    3.7752589    5.0599883 
H     4.2622539    3.1406593    3.5310798 
H     5.2230871    3.0188171    5.0406152 
H     0.1776940   -7.1991657    0.7315648 
H     0.1849533   -5.4509720    0.4228534 
H     1.2621714   -6.1365671    1.6740454 
H    -2.3398215   -5.3005206    0.8672437 
H    -3.0608426   -6.0520606    2.3163261 
H    -2.3430355   -7.0770667    1.0447787 
H     0.2199380   -7.2387949    3.8364181 
H    -0.6121970   -8.2068570    2.5848011 
H    -1.5471377   -7.4630071    3.8919344 
H     2.7854527   -5.6529350   -3.7808334 
H     3.3835618   -4.1823583   -2.9599665 
H     3.3783041   -4.2671634   -4.7454126 
H    -0.3808814   -4.0636696   -5.1741173 
H     1.1645522   -4.4109517   -6.0114087 
H     0.4478120   -5.6272010   -4.9343704 
H     0.7034654   -5.5724281   -2.5495040 
H    -0.3995058   -4.1782648   -2.5588097 
H     1.1510392   -4.0914631   -1.6626687 
H    -2.2598171    3.2258502   -6.7705288 
H    -0.7495356    2.3722678   -6.3649335 
H    -0.7011161    3.8352623   -7.3936314 
H    -0.9569173    6.1637143   -6.3125562 
H    -2.6174043    5.6522681   -5.9831071 
H    -1.6173753    6.3060264   -4.6581827 
H     1.0493443    3.5523247   -4.8808172 
H     0.9392413    5.0266186   -5.8660293 
H     0.6454183    5.1050733   -4.1029111 
H     3.3883216    2.4119603   -4.4350780 
H     4.8628850    2.1376937   -5.3770284 
H     4.5680525    1.1974322   -3.8797666 
H     5.2621025    0.4152392   -6.7506681 
H     4.1950831   -0.9669350   -7.0771739 
H     5.0829860   -0.8845160   -5.5421810 
H     1.8059259    1.9071054   -6.2933872 
H     2.0745969    0.5526797   -7.4164370 
H     3.2441145    1.9002762   -7.3538335 
H    -4.6200470    5.8440632   -0.0682858 
H    -3.7959965    6.0375610   -1.6460447 
H    -2.8682906    5.5083189   -0.2084999 
H    -5.7452254    2.8436871   -2.1270638 
H    -6.3333784    4.0804627   -0.9845931 
H    -5.6621060    4.5842863   -2.5493564 
H    -4.5184965    2.1026612    0.0865848 
H    -5.0397428    3.6013593    0.8920711 
H    -3.3127169    3.1934183    0.8384738 
H     0.7342576    2.0390969    6.9792309 
H     0.6902698    3.8075294    7.3353707 
H    -0.5755577    3.0603168    6.2917617 
H    -2.9839482   -4.8548002    5.8669109 
H    -2.9145921   -5.8477543    4.3713580 
H    -2.5898895   -6.6066156    5.9723661 
H     2.2621181   -1.3757006   -7.7005730 
H     0.9166726   -2.3659573   -7.0295983 
H     2.3420801   -3.1670592   -7.7906877 
H    -4.8390143    5.4699011   -5.2714016 
H    -3.9125764    3.9570679   -5.5966778 
H    -5.3111548    3.9332598   -4.4685106 
