213
Energy =
C     3.3061530   -0.9513224    0.4316816 
C     2.9291257   -2.0679936   -0.3851915 
C     2.4897881   -1.8556569   -1.7123187 
H     2.8103921   -3.0597155    0.0686771 
Pd    1.2094616   -0.7132128   -0.2263054 
P    -0.9266466   -1.2243983   -0.9952894 
P     0.6865476    1.3087078    0.8076775 
H     3.7885484   -0.0988384   -0.0644888 
H     2.7744054   -0.8974081   -2.1750600 
C     3.9736744   -1.1804758    4.6820625 
C     4.5536551   -0.1555543    3.9201940 
C     4.3332857   -0.0859846    2.5383326 
C     3.5334211   -1.0514763    1.8856785 
C     2.9503872   -2.0773870    2.6691126 
C     3.1706011   -2.1431052    4.0477810 
H     4.1480373   -1.2328287    5.7616871 
H     5.1895279    0.5913019    4.4055928 
H     4.7861663    0.7206607    1.9515010 
H     2.3017317   -2.8226884    2.1963703 
H     2.7115858   -2.9463995    4.6335394 
C     0.9233650   -4.6587733   -4.5628890 
C     1.3580351   -5.1203489   -3.3099158 
C     1.8712241   -4.2295299   -2.3630777 
C     1.9734421   -2.8513472   -2.6593529 
C     1.5407694   -2.4028568   -3.9295402 
C     1.0126101   -3.2927152   -4.8688956 
H     0.5259585   -5.3633654   -5.3004391 
H     1.2995951   -6.1853125   -3.0708798 
H     2.2024075   -4.6104679   -1.3935604 
H     1.6142189   -1.3390281   -4.1742520 
H     0.6784516   -2.9202917   -5.8429590 
O    -3.6341273    2.1135924    2.0927068 
O    -4.0839268    2.2291958   -1.2623007 
O    -4.6001873    0.4547294    3.3904026 
O    -3.4305568    4.0390958   -2.5488974 
O    -2.4869149    1.1892776   -6.2503178 
O    -1.4926694   -7.2051218   -1.0247048 
O    -1.1166707    1.9587790    6.4619280 
O     5.6072166    4.7575776    0.8289689 
C    -2.4036702    0.6147827    0.5514104 
C    -1.8707353    1.7483524   -0.2632493 
C    -2.1776589   -0.7758445    0.2778647 
C    -0.5182523    2.2256224   -0.2414469 
C    -3.2424909    0.8857471    1.6287249 
C    -2.7479720    2.4683642   -1.0679127 
C    -3.8357141   -0.1175075    2.4125527 
C    -2.3552150    3.5719717   -1.8420496 
C    -1.4795753   -0.4635674   -2.5548662 
C    -1.0736027   -3.0471123   -1.1244164 
C    -0.0185779    1.4545399    2.4822019 
C     2.2056693    2.3368006    0.8490800 
C    -2.7975832   -1.7712987    1.0557723 
C    -0.1372906    3.3421887   -1.0063836 
C    -3.6447892   -1.4627134    2.1412046 
C    -1.0488680    4.0368450   -1.8317998 
C    -0.8823585    0.8857563   -4.5090993 
C    -0.6512998   -5.1824352    0.0315447 
C    -3.2079213    0.0083374   -4.2340816 
C    -2.0344912   -5.1009659   -2.0468303 
C    -0.6083977    0.4840908    4.6427476 
C     3.8797948    3.6498370    2.0662798 
C    -0.8654697    2.9418101    4.2443786 
C     4.1698952    3.1916434   -0.3684340 
C    -0.5528518    0.2986489   -3.2793763 
C    -0.4809526   -3.7908951   -0.0930952 
C    -2.8010995   -0.5612190   -3.0121160 
C    -1.8570801   -3.7069984   -2.0806899 
C    -0.1527650    0.3408533    3.3212237 
C     2.7008664    2.8853786    2.0416848 
C    -0.4270220    2.7193339    2.9267607 
C     2.9726058    2.4537574   -0.3209382 
C    -2.1999563    0.6577885   -5.0111879 
C    -1.3629021   -5.8309853   -1.0187255 
C    -0.8496178    1.8122948    5.1152691 
C     4.5433146    3.8792598    0.8246167 
C    -4.2994594    1.8597460    3.3450189 
C    -4.5733742    3.3741870   -1.9840788 
C     0.1607890    1.7562356   -5.2520167 
C    -0.1053889   -5.8464993    1.3289494 
C    -4.7094523   -0.0695402   -4.6226602 
C    -3.0305506   -5.7756007   -3.0231279 
C    -0.8749082   -0.7671165    5.5160962 
C     4.4382440    4.1625458    3.4180650 
C    -1.3166244    4.3838456    4.6128084 
C     4.9766404    3.1611649   -1.6964001 
C     1.4221560    1.9739396   -4.3824728 
C    -0.4270891    3.1583097   -5.5611245 
C     0.6216985    1.0655186   -6.5603165 
C    -0.7292864   -7.2231866    1.6698627 
C    -0.4453529   -4.9235613    2.5345467 
C     1.4364946   -5.9781483    1.2451211 
C    -4.9803693   -1.3040735   -5.5221996 
C    -5.5834451   -0.2455843   -3.3504227 
C    -5.1937883    1.2290770   -5.3198539 
C    -4.1788862   -6.4085320   -2.1912656 
C    -2.3670987   -6.8641803   -3.9037045 
C    -3.6613888   -4.7371992   -3.9789930 
C    -2.3284426   -0.7203468    6.0582764 
C     0.1289828   -0.8716031    6.6926740 
C    -0.7354212   -2.0577641    4.6765044 
C     4.3675280    5.7079277    3.5147943 
C     3.6284609    3.5901541    4.6070122 
C     5.9083999    3.6940900    3.5840453 
C    -0.0710385    5.2640121    4.8969271 
C    -2.0629056    5.0155213    3.4018244 
C    -2.2951231    4.4546386    5.8117556 
C     4.9394635    1.7177258   -2.2767674 
C     4.3151051    4.1103394   -2.7287318 
C     6.4778885    3.5096963   -1.5382918 
C    -2.6023068    0.3188195   -7.3830580 
C    -0.3461391   -7.9534953   -1.4430699 
C    -0.0269634    2.4469950    7.2583429 
C     5.3407881    6.0535186    0.2749248 
H    -2.6193305   -2.8233534    0.8210487 
H     0.8921879    3.7054443   -0.9489455 
H    -4.1232444   -2.2426582    2.7378432 
H    -0.7443981    4.9075778   -2.4168039 
H     0.4411811    0.4373681   -2.8484682 
H     0.0927878   -3.2491159    0.6672517 
H    -3.5349081   -1.0699508   -2.3834768 
H    -2.3393023   -3.1191938   -2.8619353 
H     0.1044132   -0.6440363    2.9247270 
H     2.1547072    2.7107019    2.9682996 
H    -0.3872659    3.5564645    2.2251903 
H     2.6281038    1.9399681   -1.2244849 
H    -5.2348394    2.4396728    3.3885429 
H    -3.6143743    2.1141211    4.1774841 
H    -5.0892790    4.0583643   -1.2804320 
H    -5.2413677    3.0385990   -2.7913488 
H     1.1740828    2.4428357   -3.4146915 
H     2.1186417    2.6426407   -4.9157629 
H     1.9649855    1.0320678   -4.1850522 
H     0.3453734    3.7913244   -6.0335804 
H    -1.2918600    3.0916967   -6.2361522 
H    -0.7542799    3.6490688   -4.6287276 
H     1.0003846    0.0476523   -6.3565474 
H    -0.1908875    0.9929419   -7.2956415 
H     1.4387956    1.6468986   -7.0236181 
H    -0.4536881   -7.4812721    2.7074809 
H    -1.8286099   -7.1961489    1.6013922 
H    -0.3657324   -8.0371824    1.0286983 
H    -1.5336323   -4.7549049    2.6099692 
H    -0.1066635   -5.3992265    3.4710758 
H     0.0451253   -3.9393659    2.4759923 
H     1.9099049   -4.9905513    1.1008276 
H     1.8384592   -6.4114775    2.1780492 
H     1.7482806   -6.6265484    0.4083564 
H    -4.6958567   -2.2315765   -4.9981595 
H    -6.0564871   -1.3634818   -5.7649593 
H    -4.4233952   -1.2697543   -6.4694636 
H    -6.6475130   -0.1674535   -3.6314861 
H    -5.4492654   -1.2367478   -2.8838715 
H    -5.3614253    0.5209445   -2.5894307 
H    -4.8754375    2.1209924   -4.7530625 
H    -6.2964627    1.2245285   -5.3738298 
H    -4.8058012    1.3428838   -6.3405624 
H    -4.9179870   -6.8760144   -2.8665504 
H    -3.7933761   -7.1804400   -1.5075857 
H    -4.6979730   -5.6359425   -1.5966263 
H    -3.0732101   -7.1817944   -4.6911187 
H    -2.1046269   -7.7563393   -3.3189549 
H    -1.4597459   -6.4764447   -4.3974924 
H    -4.3831310   -5.2452347   -4.6409865 
H    -2.9057146   -4.2474950   -4.6188479 
H    -4.2130243   -3.9549318   -3.4291596 
H    -2.5370215   -1.6347758    6.6421324 
H    -3.0543213   -0.6701955    5.2284558 
H    -2.4831970    0.1522273    6.7103838 
H     1.1694309   -0.7946696    6.3300693 
H    -0.0437559   -0.0939140    7.4497420 
H     0.0120007   -1.8499684    7.1923827 
H    -0.9966200   -2.9281631    5.3026174 
H     0.2968648   -2.2058817    4.3175433 
H    -1.4117255   -2.0548870    3.8047225 
H     3.3465033    6.0714533    3.3012249 
H     5.0698923    6.1936559    2.8230069 
H     4.6353908    6.0277543    4.5376393 
H     4.0967193    3.9201382    5.5502854 
H     2.5853639    3.9487079    4.6127040 
H     3.6137283    2.4867870    4.6051699 
H     6.5527966    4.1109052    2.7961615 
H     6.2958375    4.0203766    4.5657027 
H     5.9739613    2.5929366    3.5405797 
H    -0.3805592    6.3000796    5.1226754 
H     0.5965719    5.2892030    4.0176670 
H     0.5134439    4.8900591    5.7536132 
H    -2.8909449    4.3769415    3.0540106 
H    -1.3981020    5.1960572    2.5406924 
H    -2.4747109    5.9945301    3.7010647 
H    -1.8212766    4.2272531    6.7756231 
H    -3.1411172    3.7581420    5.6847347 
H    -2.7041120    5.4781875    5.8747970 
H     5.5529907    1.6755439   -3.1928610 
H     3.9231275    1.3941189   -2.5565589 
H     5.3529936    0.9901874   -1.5561961 
H     4.3336473    5.1590572   -2.3878759 
H     4.8477482    4.0574046   -3.6952108 
H     3.2616160    3.8309869   -2.9014606 
H     6.6586420    4.5750767   -1.3434573 
H     6.9984512    3.2540197   -2.4779416 
H     6.9395466    2.9314580   -0.7209144 
H    -2.1016985    0.8149624   -8.2311558 
H    -2.1207267   -0.6560009   -7.1910611 
H    -3.6637093    0.1618718   -7.6462686 
H    -0.5578446   -9.0071442   -1.2073051 
H    -0.1842655   -7.8500571   -2.5313282 
H     0.5679044   -7.6331200   -0.9122521 
H    -0.2814784    2.2211189    8.3050345 
H     0.0993050    3.5389279    7.1455747 
H     0.9191509    1.9448601    6.9867600 
H     5.2363167    6.0131330   -0.8243601 
H     4.4217614    6.4888764    0.7076122 
H     6.2062706    6.6823046    0.5325419 
