213
Energy =
C    -3.1697406   -1.2673867    0.8389521 
C    -3.6302460   -0.5723658   -0.3220588 
C    -3.1248196   -0.8712757   -1.6068377 
H    -4.2506959    0.3247584   -0.1987196 
Pd   -1.4403870   -0.3105992   -0.1793268 
P    -0.0417234    0.9850438   -1.5108128 
P     0.2049514   -0.8868915    1.3644975 
H    -2.8940140   -2.3245558    0.7276348 
H    -2.6156967   -1.8403023   -1.7363724 
C    -4.1965069   -0.0788842    4.8498131 
C    -4.1814337    0.8759152    3.8193835 
C    -3.8391391    0.5005788    2.5173838 
C    -3.5119303   -0.8422166    2.2099631 
C    -3.5199278   -1.7900509    3.2578052 
C    -3.8652044   -1.4108056    4.5617031 
H    -4.4680488    0.2144894    5.8691338 
H    -4.4348760    1.9191706    4.0345160 
H    -3.8079544    1.2629659    1.7309181 
H    -3.2625610   -2.8326066    3.0408092 
H    -3.8850836   -2.1621226    5.3571518 
C    -4.2626393    0.9646592   -5.3220315 
C    -5.0825602    1.1153204   -4.1931476 
C    -4.7149519    0.5431516   -2.9702524 
C    -3.5252595   -0.2110526   -2.8595927 
C    -2.7145142   -0.3622125   -4.0078251 
C    -3.0735201    0.2260350   -5.2232925 
H    -4.5540595    1.4124238   -6.2775986 
H    -6.0225528    1.6717122   -4.2689047 
H    -5.3769100    0.6532826   -2.1053048 
H    -1.7832481   -0.9317578   -3.9348083 
H    -2.4258347    0.1070031   -6.0975024 
O     4.6936177    0.8993152   -0.7742274 
O     3.7319306    2.1068007    2.0498729 
O     5.6510402   -1.1801887   -1.0827621 
O     3.1477355    4.3377182    2.2617439 
O     1.1559515    2.4069208    6.2614265 
O    -1.1109189   -6.3548759    3.4897850 
O     3.7722625   -2.0704178   -4.9742191 
O    -3.2596366    5.1090103   -4.4397041 
C     2.5532801    0.1170514    0.1935853 
C     2.0452374    1.5119589    0.3351909 
C     1.8623604   -1.0773508    0.5795363 
C     0.9882793    2.0840391   -0.4490136 
C     3.8288590   -0.0691743   -0.3295512 
C     2.6850247    2.3851821    1.2109916 
C     4.4076787   -1.3330296   -0.5192568 
C     2.3392093    3.7399526    1.3357120 
C     0.5585420    0.1860045    2.7954897 
C    -0.2007867   -2.5385037    2.0492936 
C     1.1136393    0.0969708   -2.6050564 
C    -1.0145686    2.1593269   -2.5180104 
C     2.4482792   -2.3405617    0.3825788 
C     0.6664514    3.4491035   -0.3279856 
C     3.7315219   -2.4971510   -0.1873938 
C     1.3380871    4.3093889    0.5656240 
C     1.9314545    0.6306602    4.7835214 
C    -0.9313875   -4.8438693    1.5744876 
C     0.0431259    2.1496666    4.1537007 
C    -0.6339478   -4.0544269    3.9243419 
C     1.6906598   -2.0150533   -3.7213375 
C    -1.3285471    3.6226681   -4.4624290 
C     3.0877044    0.0338158   -4.0508002 
C    -2.8548942    3.7794640   -2.4882905 
C     1.6405558   -0.1225502    3.6314549 
C    -0.5626674   -3.5548826    1.1501104 
C    -0.2014768    1.3394917    3.0330179 
C    -0.2893905   -2.7852406    3.4257899 
C     0.8670937   -1.2538327   -2.8703824 
C    -0.6313002    2.5996135   -3.7864576 
C     2.2092937    0.7361303   -3.2107480 
C    -2.1190720    2.7535622   -1.8831125 
C     1.0446235    1.7092967    5.0751405 
C    -0.8659792   -5.0981848    2.9796634 
C     2.8474107   -1.3646969   -4.2341796 
C    -2.4862237    4.1487575   -3.8197490 
C     5.9491832    0.2214618   -0.9294741 
C     3.8678294    3.2666330    2.8933777 
C     3.1855773    0.2193140    5.6073558 
C    -1.3999102   -5.8619481    0.4990174 
C    -0.7212409    3.4856341    4.3330578 
C    -0.7708904   -4.2644818    5.4539173 
C     1.2497492   -3.4752043   -4.0180242 
C    -0.7324748    4.1044294   -5.8159809 
C     4.1755465    0.8016843   -4.8451470 
C    -3.9206352    4.5480727   -1.6666607 
C     2.8549745   -1.0181164    6.4819360 
C     3.7628862    1.3476234    6.4983282 
C     4.3267363   -0.1922536    4.6319307 
C    -0.1837153   -6.6596457   -0.0402288 
C    -2.0290388   -5.1123074   -0.7086271 
C    -2.5021037   -6.8189415    1.0199452 
C    -1.6742203    3.4423628    5.5553981 
C     0.2944501    4.6469808    4.5003844 
C    -1.5806309    3.7983797    3.0844215 
C    -0.6821641   -2.9178147    6.2124818 
C     0.3727295   -5.1661867    5.9844765 
C    -2.1477844   -4.8932516    5.7955057 
C     1.5964660   -4.3693328   -2.8006783 
C     1.8475169   -4.0820025   -5.3120079 
C    -0.2925491   -3.5080969   -4.2171889 
C     0.8198929    4.1219005   -5.7082797 
C    -1.1146292    3.1037548   -6.9373373 
C    -1.1402620    5.5431079   -6.2238060 
C     4.2903825    2.2654872   -4.3568363 
C     5.5937901    0.1806412   -4.7503722 
C     3.7328001    0.8054561   -6.3335618 
C    -3.4425370    6.0180698   -1.5219122 
C    -5.3294820    4.5221721   -2.3093259 
C    -4.0638162    3.9554731   -0.2440028 
C     0.5788868    1.7613857    7.4063507 
C    -0.0884194   -7.3540726    3.3791504 
C     4.7039156   -2.8449948   -4.2005607 
C    -4.1778672    4.6365762   -5.4335969 
H     1.9095298   -3.2365886    0.7016196 
H    -0.1303938    3.8686338   -0.9467415 
H     4.1758276   -3.4838700   -0.3371016 
H     1.0829702    5.3685018    0.6452591 
H     2.2727548   -0.9763705    3.3740262 
H    -0.5737265   -3.3214386    0.0810671 
H    -0.9858842    1.6002901    2.3190196 
H    -0.0923521   -1.9694433    4.1210795 
H     0.0074445   -1.7244858   -2.3829820 
H     0.2436683    2.1473690   -4.2573022 
H     2.3795582    1.7941054   -3.0016808 
H    -2.3788601    2.4142282   -0.8760572 
H     6.5628069    0.3664414   -0.0170941 
H     6.4578843    0.5907930   -1.8312360 
H     4.9321350    3.5362243    2.9791406 
H     3.4132429    3.0523180    3.8807368 
H     2.0404270   -0.8140975    7.1967328 
H     3.7455610   -1.3262952    7.0582256 
H     2.5456459   -1.8697804    5.8508660 
H     4.7490147    1.0270849    6.8775393 
H     3.9047284    2.2820572    5.9299801 
H     3.1348442    1.5806160    7.3681775 
H     4.0935957   -1.1121563    4.0700978 
H     4.5395891    0.6009715    3.8974995 
H     5.2437248   -0.3931569    5.2120269 
H    -0.5060667   -7.3529302   -0.8379163 
H     0.5691430   -5.9739992   -0.4650599 
H     0.3077556   -7.2530639    0.7450932 
H    -1.2952403   -4.5110540   -1.2706977 
H    -2.4434488   -5.8501662   -1.4161652 
H    -2.8538151   -4.4513137   -0.3874036 
H    -3.3414232   -6.2469973    1.4523983 
H    -2.8919713   -7.4119716    0.1742280 
H    -2.1465151   -7.5171306    1.7878774 
H    -1.1199619    3.4581499    6.5044927 
H    -2.3323786    4.3295699    5.5431891 
H    -2.3117381    2.5416600    5.5278544 
H    -0.2482687    5.6045692    4.5952629 
H     0.9134969    4.5075121    5.3993433 
H     0.9603242    4.7166223    3.6239229 
H    -2.3871402    3.0598519    2.9405004 
H    -0.9699132    3.8329488    2.1657127 
H    -2.0549355    4.7866669    3.2115527 
H    -0.8451843   -3.1021004    7.2882725 
H     0.3066415   -2.4418986    6.1072647 
H    -1.4484908   -2.2006289    5.8719870 
H     1.3587707   -4.7485689    5.7133802 
H     0.3068957   -6.1903233    5.5917827 
H     0.3188288   -5.2278265    7.0861464 
H    -2.9686003   -4.2536081    5.4269417 
H    -2.2525694   -4.9830025    6.8914433 
H    -2.2617638   -5.8899583    5.3469680 
H     1.2285244   -5.3985506   -2.9605158 
H     1.1341544   -3.9729870   -1.8799298 
H     2.6845526   -4.4161591   -2.6274765 
H     1.7226874   -3.3998794   -6.1686986 
H     2.9143887   -4.3267819   -5.2260325 
H     1.3119639   -5.0210794   -5.5379156 
H    -0.6083212   -4.5352573   -4.4678064 
H    -0.5986876   -2.8441939   -5.0441838 
H    -0.8510759   -3.2127086   -3.3136459 
H     1.2493804    3.1139307   -5.5899515 
H     1.1546116    4.7431211   -4.8591257 
H     1.2456348    4.5448029   -6.6341859 
H    -0.6677069    3.4167658   -7.8978485 
H    -0.7460929    2.0902467   -6.6994802 
H    -2.2073725    3.0394221   -7.0744298 
H    -1.0024428    6.2514529   -5.3905686 
H    -0.4947315    5.8647114   -7.0599876 
H    -2.1797235    5.6210777   -6.5686763 
H     4.5687449    2.3145059   -3.2889203 
H     3.3547901    2.8323831   -4.4966660 
H     5.0719303    2.7811814   -4.9401576 
H     6.3351084    0.9083476   -5.1242800 
H     5.6843786   -0.7297885   -5.3574598 
H     5.8563690   -0.0671545   -3.7093235 
H     2.7501678    1.2958545   -6.4495139 
H     3.6596890   -0.2252512   -6.7182872 
H     4.4675321    1.3566165   -6.9479346 
H    -4.1684729    6.5946248   -0.9205298 
H    -3.3458693    6.4976257   -2.5084292 
H    -2.4638330    6.0592893   -1.0108551 
H    -5.6391107    3.4892053   -2.5417801 
H    -6.0637245    4.9462332   -1.6016559 
H    -5.3704603    5.1241991   -3.2267865 
H    -4.4229451    2.9103040   -0.2706604 
H    -4.8053546    4.5460538    0.3202167 
H    -3.1169218    3.9853113    0.3226294 
H    -0.4373570    1.3903160    7.1818019 
H     1.2015914    0.9165815    7.7522236 
H     0.5308963    2.5229543    8.1992433 
H    -0.2749726   -8.0142559    2.5127407 
H     0.9113669   -6.8949550    3.2854114 
H    -0.1300683   -7.9614049    4.2979023 
H     5.4935027   -3.1657967   -4.8965773 
H     4.2193067   -3.7390148   -3.7677383 
H     5.1427940   -2.2444763   -3.3852997 
H    -4.9100475    3.9371251   -4.9945893 
H    -4.6977710    5.5265265   -5.8186904 
H    -3.6551378    4.1287123   -6.2629409 
