213
Energy =
C    -3.3125795   -2.0206683   -0.1670701 
C    -3.7322066   -0.7881984   -0.7176063 
C    -3.1952862   -0.2999127   -1.9515469 
H    -4.3706437   -0.1324795   -0.1093562 
Pd   -1.5772869   -0.5443336   -0.4654254 
P     0.0131694    0.8629733   -1.3996672 
P    -0.2976905   -0.7511201    1.5057862 
H    -2.8943049   -2.7675774   -0.8605940 
H    -2.9198164   -1.0429998   -2.7145096 
C    -4.9927304   -3.5826494    3.4670874 
C    -4.5829981   -2.2408615    3.4102668 
C    -4.0043238   -1.7328841    2.2442132 
C    -3.8253257   -2.5528967    1.1098117 
C    -4.2101475   -3.9087890    1.1895634 
C    -4.8011723   -4.4145722    2.3537051 
H    -5.4540862   -3.9788204    4.3777592 
H    -4.7063114   -1.5901855    4.2819521 
H    -3.6614014   -0.6957082    2.2161189 
H    -4.0757314   -4.5586172    0.3185818 
H    -5.1190949   -5.4618121    2.3891510 
C    -3.9333508    3.6785462   -3.4369092 
C    -3.8650761    3.4470934   -2.0527566 
C    -3.6372749    2.1555379   -1.5681542 
C    -3.4760015    1.0626261   -2.4513923 
C    -3.5480900    1.3117460   -3.8380192 
C    -3.7761891    2.6050288   -4.3244508 
H    -4.1054644    4.6897819   -3.8188684 
H    -3.9839543    4.2776426   -1.3485479 
H    -3.5508105    1.9938513   -0.4884950 
H    -3.4176394    0.4821716   -4.5400492 
H    -3.8287196    2.7742728   -5.4038111 
O     4.3741573    1.6101959    0.5107542 
O     2.6632519    2.9747620    2.6704147 
O     5.6361526   -0.3047029    0.7979126 
O     1.5273191    4.9834780    2.6300564 
O    -1.6936961    3.7291894    5.2625117 
O    -1.1899515   -5.9145296    4.4522859 
O     4.8860014   -2.0858398   -3.2464409 
O    -0.4040366    2.8799532   -7.0302695 
C     2.1638051    0.5995466    0.9833163 
C     1.4475764    1.8912600    0.8006095 
C     1.5429308   -0.6451729    1.3447361 
C     0.4319722    2.1514515   -0.1750499 
C     3.5501501    0.5706444    0.8643331 
C     1.7369150    2.9512064    1.6572223 
C     4.3162526   -0.5920253    1.0332038 
C     1.0362152    4.1660564    1.6414781 
C    -0.7194242    0.6277499    2.6422376 
C    -0.5797446   -2.2988836    2.4483903 
C     1.5549716   -0.0244810   -1.8508835 
C    -0.2767987    1.6506586   -3.0364299 
C     2.3259230   -1.8007108    1.5222694 
C    -0.3115131    3.3488315   -0.1402235 
C     3.7279080   -1.8042366    1.3590384 
C    -0.0269474    4.3830336    0.7759594 
C    -0.2515742    1.9102002    4.6783445 
C    -0.6148102   -4.7574304    2.4135732 
C    -2.3021315    2.3844002    3.3274107 
C    -0.9591124   -3.5146271    4.5482671 
C     3.7301189    0.0404082   -2.9797385 
C    -0.0548961    3.4538452   -4.6886625 
C     2.6178084   -2.1370505   -2.4741718 
C    -0.4264885    1.0982113   -5.4224697 
C     0.0828166    0.8980656    3.7652907 
C    -0.4975668   -3.5184007    1.7583602 
C    -1.8911334    1.3665930    2.4423286 
C    -0.7945022   -2.3141072    3.8313421 
C     2.6294736    0.6900319   -2.3944123 
C    -0.0679446    2.9928864   -3.3535885 
C     1.5328621   -1.4222076   -1.9429812 
C    -0.4339494    0.7182291   -4.0774874 
C    -1.4193904    2.6882311    4.4014896 
C    -0.9304526   -4.7273522    3.8039706 
C     3.7550095   -1.3824941   -2.8861295 
C    -0.3202138    2.4964025   -5.7063226 
C     5.7023483    1.1320781    0.7819712 
C     2.7618258    4.3604441    3.0323077 
C     0.5453871    2.0482204    6.0016397 
C    -0.2825873   -6.0202936    1.5687990 
C    -3.6794591    3.0589859    3.0681562 
C    -1.0951254   -3.3776791    6.0912434 
C     4.7364722    0.9215099   -3.7736589 
C     0.3007523    4.9529546   -4.9053446 
C     2.5276747   -3.6699840   -2.6635384 
C    -0.4149146    0.0128261   -6.5274496 
C     0.9900822    3.4962604    6.3341741 
C     1.8277153    1.1829250    5.9694286 
C    -0.3773463    1.5393616    7.1425170 
C     1.1916715   -5.8599566    1.0990984 
C    -1.2220793   -6.0876330    0.3377733 
C    -0.3572522   -7.3865805    2.2895123 
C    -3.5317898    4.1328818    1.9599833 
C    -4.6893604    1.9904104    2.5648395 
C    -4.3343310    3.6782354    4.3294098 
C    -1.1082967   -4.6928585    6.9052869 
C    -2.3924948   -2.5937066    6.4177587 
C     0.1332149   -2.5694653    6.5966195 
C     3.9114727    1.9314837   -4.6259726 
C     5.6213748    0.1413488   -4.7764965 
C     5.6377986    1.7261561   -2.8057229 
C    -0.9384162    5.8274637   -4.5816111 
C     1.4395994    5.3576199   -3.9239950 
C     0.8343531    5.2916747   -6.3203283 
C     1.0986129   -4.1752662   -2.3585392 
C     2.8327297   -4.0326435   -4.1414785 
C     3.5092958   -4.4127317   -1.7222967 
C    -1.6186857    0.1299727   -7.4961159 
C     0.9112611    0.1411828   -7.3243248 
C    -0.4553924   -1.4079715   -5.9148349 
C    -1.3454604    5.0388539    4.7838677 
C    -2.5647643   -6.3048471    4.4390717 
C     5.9514091   -2.0239089   -2.2879358 
C    -1.6392110    3.4833966   -7.4315811 
H     1.8416665   -2.7353948    1.8154693 
H    -1.1354809    3.4875161   -0.8463411 
H     4.3183722   -2.7123924    1.5000203 
H    -0.6065036    5.3083773    0.7964258 
H     0.9862341    0.3039871    3.9163252 
H    -0.3079473   -3.4983629    0.6788372 
H    -2.4957382    1.1392406    1.5582972 
H    -0.8406431   -1.3648896    4.3703318 
H     2.5809584    1.7825993   -2.4060014 
H     0.1396432    3.7044361   -2.5547168 
H     0.6434277   -1.9502764   -1.5867708 
H    -0.5169635   -0.3394760   -3.8157448 
H     6.0263932    1.4963821    1.7783725 
H     6.3817237    1.4620733   -0.0162581 
H     3.6036062    4.8269949    2.4808854 
H     2.8817582    4.4492879    4.1211594 
H     1.4459399    3.9869815    5.4595461 
H     1.7454824    3.4686876    7.1387655 
H     0.1527902    4.1142119    6.6837217 
H     2.3716489    1.3062640    6.9212384 
H     1.6105358    0.1073545    5.8590052 
H     2.4982722    1.4885260    5.1464430 
H    -1.2877307    2.1579183    7.2067265 
H    -0.6752563    0.4905263    6.9706769 
H     0.1509722    1.5927583    8.1115489 
H     1.4797163   -6.7054687    0.4493647 
H     1.3507279   -4.9317193    0.5286841 
H     1.8723299   -5.8457119    1.9683729 
H    -1.1827534   -5.1703558   -0.2747872 
H    -0.9363431   -6.9348238   -0.3104200 
H    -2.2668922   -6.2382805    0.6591896 
H    -1.3861379   -7.6625230    2.5660412 
H     0.0105064   -8.1592184    1.5904496 
H     0.2648040   -7.4133333    3.1959863 
H    -3.0989947    3.6921499    1.0460344 
H    -4.5175214    4.5636991    1.7084819 
H    -2.8694881    4.9555261    2.2757971 
H    -5.6802333    2.4565223    2.4322703 
H    -4.4081930    1.5566129    1.5912515 
H    -4.7925233    1.1674115    3.2927802 
H    -3.8455480    4.6005377    4.6687920 
H    -4.3335964    2.9644797    5.1696326 
H    -5.3830793    3.9291193    4.0917244 
H    -1.0693148   -4.4296246    7.9776619 
H    -2.0253026   -5.2799070    6.7484640 
H    -0.2438594   -5.3329230    6.6733493 
H    -3.2813078   -3.1512438    6.0755896 
H    -2.4077207   -1.6010751    5.9345475 
H    -2.4791971   -2.4420570    7.5085342 
H     1.0712915   -3.1094547    6.3799022 
H     0.0630353   -2.4222615    7.6887593 
H     0.1986295   -1.5734413    6.1305352 
H     4.5943361    2.5189627   -5.2640989 
H     3.3438478    2.6453620   -4.0077457 
H     3.1924854    1.4063998   -5.2773682 
H     6.3932435   -0.4702042   -4.2889829 
H     5.0160550   -0.5197614   -5.4180676 
H     6.1390473    0.8704907   -5.4247069 
H     6.2692785    2.4342268   -3.3712515 
H     6.3099847    1.0544506   -2.2435916 
H     5.0335272    2.2973866   -2.0800197 
H    -1.2853978    5.6518838   -3.5479320 
H    -1.7817627    5.6044188   -5.2572251 
H    -0.6899947    6.8986440   -4.6882949 
H     1.7293782    6.4045843   -4.1176793 
H     1.1421408    5.2977999   -2.8637563 
H     2.3306732    4.7229458   -4.0702785 
H     0.0546085    5.2852872   -7.0933336 
H     1.2615416    6.3097463   -6.2979605 
H     1.6279391    4.5914169   -6.6284172 
H     0.3477416   -3.6965287   -3.0124369 
H     0.8084189   -3.9958857   -1.3098933 
H     1.0502815   -5.2641362   -2.5292072 
H     2.7360233   -5.1238420   -4.2849369 
H     3.8513939   -3.7304496   -4.4252948 
H     2.1154636   -3.5343851   -4.8178396 
H     3.3835420   -4.0761839   -0.6786811 
H     4.5540633   -4.2485699   -2.0227477 
H     3.3157054   -5.4997351   -1.7572725 
H    -1.6583395   -0.7616938   -8.1464404 
H    -1.5313397    1.0097878   -8.1482090 
H    -2.5738976    0.1866638   -6.9437564 
H     1.7777555   -0.0163924   -6.6579963 
H     0.9482586   -0.6239659   -8.1205321 
H     0.9980798    1.1351128   -7.7899460 
H     0.3963886   -1.5926725   -5.2368101 
H    -0.4015090   -2.1523605   -6.7273770 
H    -1.3925926   -1.5932117   -5.3580065 
H    -0.3415336    5.0434067    4.3260997 
H    -2.0795255    5.4035121    4.0430468 
H    -1.3624138    5.7044128    5.6601058 
H    -3.2015712   -5.5458915    4.9323869 
H    -2.9302835   -6.4450284    3.4041256 
H    -2.6249416   -7.2567031    4.9877772 
H     6.2849234   -0.9855128   -2.1149570 
H     6.7793311   -2.6146004   -2.7075067 
H     5.6364893   -2.4534703   -1.3195028 
H    -2.4712578    2.7581799   -7.3747953 
H    -1.8867457    4.3607021   -6.8082692 
H    -1.5038947    3.8012578   -8.4762151 
