109
Energy =
C    -2.4163045   -2.0569511   -2.1902632 
C    -1.1986256   -2.1138412   -2.9355638 
C    -0.1262786   -2.9451587   -2.5408660 
H    -1.0398870   -1.3912002   -3.7464182 
Pd   -0.6983355   -1.4684990   -0.8930415 
P     1.4683931   -0.7933569   -0.2425398 
P    -1.7726217   -0.1862305    0.7367766 
H    -2.7471438   -2.9730841   -1.6795474 
H    -0.3670538   -3.8039057   -1.8944074 
C    -5.4972627    0.8481333   -2.9788269 
C    -4.1558275    1.1567078   -3.2592705 
C    -3.1534867    0.2124787   -3.0154378 
C    -3.4664634   -1.0616395   -2.4850655 
C    -4.8200238   -1.3566454   -2.2138371 
C    -5.8243446   -0.4123297   -2.4582858 
H    -6.2819509    1.5894434   -3.1611213 
H    -3.8848917    2.1442231   -3.6475440 
H    -2.1088970    0.4835501   -3.2044145 
H    -5.0839637   -2.3373392   -1.8052835 
H    -6.8664514   -0.6600321   -2.2332563 
C     3.6812603   -3.2968958   -4.5045708 
C     3.1994437   -4.3243905   -3.6806224 
C     1.9651350   -4.1865006   -3.0362163 
C     1.1800175   -3.0249410   -3.2137430 
C     1.6817930   -1.9946219   -4.0428912 
C     2.9193170   -2.1293249   -4.6782546 
H     4.6487283   -3.4013401   -5.0063991 
H     3.7894954   -5.2342512   -3.5330905 
H     1.5965537   -4.9894627   -2.3893210 
H     1.1082004   -1.0748702   -4.1864607 
H     3.2925099   -1.3191222   -5.3131691 
O     1.8573626    3.4954699    0.9854519 
O     0.4032588    2.5193364    3.5731332 
O    -1.5981820    4.1643543   -2.0123254 
O     3.1580638   -1.0307781    4.6517426 
N     0.1083728    3.8675787   -0.4739188 
N     1.8058297    0.7677612    4.1167872 
C     0.1711547    1.8532270    0.9003334 
C     0.9774947    1.0340255    1.8423311 
C    -1.0828061    1.4752173    0.3638607 
C     1.6878165   -0.1329965    1.4685763 
C     0.6878078    3.0997051    0.4499972 
C     1.0966424    1.4275000    3.1998629 
C    -1.6909221    2.2618809   -0.6293921 
C     2.4467857   -0.8302723    2.4174373 
C    -1.4387458   -0.5593016    2.5073300 
C    -3.6074914   -0.0925523    0.7821544 
C     2.0036442    0.6154106   -1.2922609 
C     2.7280200   -2.1193479   -0.3781224 
C    -1.0330912    3.4421303   -1.0227719 
C     2.4582235   -0.3339696    3.7373705 
C    -0.7544971   -1.7323654    2.8733305 
C    -4.2625693   -1.3333889    0.9357925 
C     3.1966147    1.3135162   -1.0098993 
C     2.4254365   -3.3507965    0.2438321 
C    -1.9563407    0.2926009    3.5057444 
C    -4.3616913    1.0953500    0.8147921 
C     1.1881606    1.0366522   -2.3607804 
C     3.9525657   -1.9679895   -1.0530627 
C    -0.5639133   -2.0416702    4.2278176 
C    -5.6479582   -1.3856713    1.1225796 
C     3.5808074    2.3919987   -1.8174030 
C     3.3579903   -4.3951436    0.2372620 
C    -1.7634202   -0.0213526    4.8553925 
C    -5.7540962    1.0348894    0.9791308 
C     1.5683100    2.1251743   -3.1554927 
C     4.8755698   -3.0239139   -1.0714524 
C    -1.0645645   -1.1850034    5.2180331 
C    -6.3984652   -0.1997086    1.1364874 
C     2.7703145    2.7978024   -2.8897438 
C     4.5892532   -4.2295529   -0.4161882 
C     2.3813504    4.7671972    0.5695345 
C     0.5162740    2.9390556    4.9430191 
C    -0.9281304    5.3720610   -2.4149684 
C     3.1600076   -0.5369139    6.0026967 
H    -2.6241010    1.9796474   -1.1175550 
H     3.0118321   -1.7334504    2.1816851 
H    -0.3599251   -2.3936774    2.0935773 
H    -3.6779692   -2.2613957    0.9193449 
H     3.8108871    1.0266184   -0.1501157 
H     1.4559147   -3.4870890    0.7382383 
H    -2.4999952    1.2008841    3.2264221 
H    -3.8721496    2.0691369    0.7294248 
H     0.2377318    0.5218609   -2.5409321 
H     4.1838409   -1.0366441   -1.5771440 
H    -0.0166011   -2.9475741    4.5072098 
H    -6.1438791   -2.3536635    1.2487281 
H     4.5105617    2.9273980   -1.5988196 
H     3.1207346   -5.3406845    0.7357338 
H    -2.1632107    0.6426348    5.6288334 
H    -6.3339913    1.9635005    0.9956193 
H     0.9182197    2.4562816   -3.9719544 
H     5.8225725   -2.9011002   -1.6067077 
H    -0.9159150   -1.4259215    6.2758357 
H    -7.4840346   -0.2385769    1.2735729 
H     3.0711415    3.6480087   -3.5108874 
H     5.3181165   -5.0464896   -0.4271169 
H     2.5625822    4.7751514   -0.5181172 
H     3.3242738    4.8846581    1.1219685 
H     1.6786582    5.5785223    0.8236302 
H     1.5626832    3.1860889    5.1893200 
H     0.1666131    2.1435791    5.6224288 
H    -0.1218342    3.8302566    5.0255212 
H     0.0870060    5.1494807   -2.7863132 
H    -1.5500514    5.7947112   -3.2165790 
H    -0.8518219    6.0779445   -1.5706456 
H     2.1337798   -0.5071858    6.4072246 
H     3.7797689   -1.2462330    6.5689650 
H     3.5912807    0.4775135    6.0485249 
