109
Energy =
C     2.4517547   -1.3742103    2.6990445 
C     2.9447976   -2.0311469    1.5492402 
C     3.4977298   -1.3034112    0.4552289 
H     2.7473407   -3.1044281    1.4318612 
Pd    1.3969749   -0.6263963    0.8134781 
P     1.1656441    0.5921548   -1.1774336 
P    -0.8173385   -0.2792247    1.5068400 
H     2.7715801   -0.3329184    2.8668593 
H     4.0144027   -0.3608639    0.6836227 
C     0.7722255   -3.2795079    6.1623149 
C     0.5745950   -1.9080088    5.9357667 
C     1.1290342   -1.2973302    4.8077634 
C     1.8780356   -2.0487617    3.8730024 
C     2.0715059   -3.4284089    4.1150540 
C     1.5279905   -4.0347590    5.2523880 
H     0.3435183   -3.7566118    7.0494654 
H    -0.0173182   -1.3149861    6.6399258 
H     0.9643704   -0.2286599    4.6278420 
H     2.6782222   -4.0260310    3.4270746 
H     1.7000704   -5.1007416    5.4338175 
C     4.6077508   -3.0594251   -3.3160214 
C     3.6282439   -3.6789284   -2.5208978 
C     3.2621070   -3.1204832   -1.2934285 
C     3.8668699   -1.9275871   -0.8303363 
C     4.8499767   -1.3175331   -1.6398771 
C     5.2174696   -1.8789053   -2.8689889 
H     4.8915427   -3.4971345   -4.2785808 
H     3.1444430   -4.5989659   -2.8651593 
H     2.4831877   -3.6064431   -0.6950706 
H     5.3255880   -0.3913415   -1.2999631 
H     5.9812411   -1.3875282   -3.4805387 
O    -3.4459179    2.8230577   -0.5108532 
O    -2.8689807    1.2056707   -3.0170039 
O     0.2133167    5.6449538   -0.4608244 
O    -3.8193049   -3.0972976   -1.6262215 
N    -1.6269892    4.2433272   -0.5027824 
N    -3.3696842   -0.9366742   -2.3204779 
C    -1.3259674    1.8482328   -0.8323925 
C    -1.9818438    0.5205350   -0.9451546 
C     0.0666533    2.0622835   -0.9656351 
C    -1.9031837   -0.5057784    0.0271584 
C    -2.1162389    3.0087306   -0.6228104 
C    -2.7659680    0.2302569   -2.0941085 
C     0.5954845    3.3553851   -0.8504705 
C    -2.5382570   -1.7360487   -0.1947313 
C     0.4559189   -0.3160350   -2.5971801 
C     2.7696074    1.3005934   -1.7264350 
C    -1.2410138    1.3711037    2.1756033 
C    -1.4361584   -1.5114140    2.7190498 
C    -0.3055323    4.4107701   -0.6017734 
C    -3.2451923   -1.8999888   -1.4032313 
C     0.0877130    0.3586327   -3.7806217 
C     3.2487340    1.1880753   -3.0444060 
C    -2.5835609    1.7859849    2.3089058 
C    -0.9855014   -2.8417493    2.5790415 
C     0.2617853   -1.7067996   -2.4920976 
C     3.5631969    1.9523779   -0.7556460 
C    -0.2001436    2.2366594    2.5661598 
C    -2.3224893   -1.1901473    3.7655504 
C    -0.4487561   -0.3646544   -4.8530384 
C     4.4907261    1.7426969   -3.3900471 
C    -2.8725348    3.0464606    2.8455991 
C    -1.4446648   -3.8397680    3.4459602 
C    -0.2892545   -2.4213435   -3.5632903 
C     4.7987972    2.5096764   -1.1066878 
C    -0.4960195    3.5037404    3.0873698 
C    -2.7727752   -2.1920850    4.6359719 
C    -0.6399856   -1.7516616   -4.7448713 
C     5.2640212    2.4070672   -2.4284367 
C    -1.8318625    3.9066375    3.2309204 
C    -2.3416790   -3.5164332    4.4750159 
C    -4.2669145    3.9922867   -0.3593477 
C    -3.6924115    0.9465341   -4.1653692 
C    -0.7025008    6.7247260   -0.2093032 
C    -4.5417643   -3.2667381   -2.8580810 
H     1.6576643    3.5786578   -0.9585329 
H    -2.5141758   -2.5559015    0.5252671 
H     0.2003844    1.4453657   -3.8526418 
H     2.6664987    0.6532772   -3.7998077 
H    -3.3957839    1.1378861    1.9646009 
H    -0.2637685   -3.0896669    1.7909688 
H     0.5270522   -2.2178665   -1.5610420 
H     3.2083963    2.0228570    0.2801645 
H     0.8417484    1.9194119    2.4392109 
H    -2.6559991   -0.1593048    3.9124491 
H    -0.7301994    0.1588209   -5.7725896 
H     4.8563381    1.6449493   -4.4173887 
H    -3.9150445    3.3636169    2.9517380 
H    -1.0866598   -4.8672711    3.3298894 
H    -0.4514978   -3.5000597   -3.4712061 
H     5.4013473    3.0202639   -0.3484579 
H     0.3168164    4.1783280    3.3748510 
H    -3.4615466   -1.9330154    5.4467469 
H    -1.0695076   -2.3101644   -5.5832124 
H     6.2319733    2.8384033   -2.7033740 
H    -2.0635506    4.8959493    3.6390725 
H    -2.6933424   -4.2953088    5.1592577 
H    -3.9882471    4.5496650    0.5505411 
H    -5.2965619    3.6145974   -0.2853022 
H    -4.1595278    4.6576502   -1.2326530 
H    -4.7345391    0.7527402   -3.8601639 
H    -3.3147583    0.0752270   -4.7260250 
H    -3.6312111    1.8585542   -4.7759738 
H    -1.2558729    6.5553051    0.7303854 
H    -0.0753638    7.6240257   -0.1326957 
H    -1.4261407    6.8258141   -1.0360390 
H    -3.8738948   -3.1207150   -3.7244509 
H    -4.9216790   -4.2977057   -2.8310649 
H    -5.3758070   -2.5476987   -2.9257913 
