109
Energy =
C     1.9861116   -2.2844773    2.3907643 
C     2.6623822   -2.4732312    1.1464306 
C     3.5381437   -1.4951825    0.6237528 
H     2.3855499   -3.3293441    0.5177020 
Pd    1.4421167   -0.6515949    0.9692562 
P     1.1975278    0.5503015   -1.0480126 
P    -0.6159705    0.0413099    1.8283284 
H     2.5024392   -1.7059392    3.1708033 
H     3.9746771   -0.7784757    1.3373076 
C    -1.1116827   -4.9316961    3.7866317 
C    -0.9047202   -4.7622598    2.4075728 
C     0.1070581   -3.9124311    1.9496116 
C     0.9352544   -3.2108161    2.8576063 
C     0.7163887   -3.3963490    4.2397427 
C    -0.2955830   -4.2477058    4.6992372 
H    -1.9088143   -5.5902189    4.1464065 
H    -1.5476038   -5.2754511    1.6845460 
H     0.2302231   -3.7634133    0.8712323 
H     1.3474055   -2.8644706    4.9589074 
H    -0.4519649   -4.3706998    5.7755443 
C     5.6662351   -1.7024343   -3.1051525 
C     6.1118947   -0.8704396   -2.0678710 
C     5.3984940   -0.8040857   -0.8660847 
C     4.2325400   -1.5784284   -0.6709298 
C     3.7924540   -2.4089009   -1.7279701 
C     4.5006961   -2.4673931   -2.9314204 
H     6.2208938   -1.7524304   -4.0478148 
H     7.0145506   -0.2651318   -2.1966863 
H     5.7483114   -0.1486255   -0.0616334 
H     2.8842601   -3.0075039   -1.6164211 
H     4.1419732   -3.1134841   -3.7393285 
O    -3.4914306    2.6298315   -0.4455274 
O    -2.9397621    0.6120709   -2.7619400 
O    -0.0233720    5.5843462   -1.2200168 
O    -3.3111964   -3.5233438   -0.7285951 
N    -1.7726868    4.1139693   -0.8627569 
N    -3.1806530   -1.4389200   -1.7310218 
C    -1.3542710    1.7157574   -0.8043154 
C    -1.9317502    0.3552733   -0.6488456 
C     0.0138627    1.9684253   -1.0697630 
C    -1.7387973   -0.4856752    0.4729589 
C    -2.1938714    2.8560919   -0.7237039 
C    -2.7072848   -0.1921722   -1.7082258 
C     0.4695959    3.2834205   -1.2297748 
C    -2.2110040   -1.8092575    0.4513937 
C     0.5167877   -0.5666098   -2.3370777 
C     2.7642127    1.2652150   -1.6779260 
C    -0.8826354    1.8373294    2.1254843 
C    -1.2254425   -0.6308434    3.4263065 
C    -0.4757117    4.3221580   -1.1032517 
C    -2.9092421   -2.2360254   -0.6935580 
C     0.1202517   -0.0622986   -3.5935313 
C     3.5218359    2.0362087   -0.7689174 
C     0.1960540    2.7382974    2.0708400 
C    -0.3753780   -0.4035398    4.5299167 
C     0.3411230   -1.9344662   -2.0503215 
C     3.2294185    1.0923194   -2.9938131 
C    -2.1627776    2.2959858    2.5014124 
C    -2.4920146   -1.2071937    3.6371411 
C    -0.4065645   -0.9308708   -4.5583638 
C     4.6985366    2.6694317   -1.1869321 
C    -0.0053613    4.0948887    2.3636993 
C    -0.7859609   -0.7434370    5.8232692 
C    -0.2003103   -2.7960551   -3.0123058 
C     4.4182947    1.7146542   -3.4019529 
C    -2.3575351    3.6504021    2.7929775 
C    -2.8887435   -1.5674741    4.9341544 
C    -0.5662886   -2.2958865   -4.2707446 
C     5.1449322    2.5140453   -2.5086562 
C    -1.2818110    4.5512827    2.7206739 
C    -2.0425473   -1.3346257    6.0268786 
C    -4.3606340    3.7716853   -0.3670677 
C    -3.7501245    0.0919608   -3.8284399 
C    -0.9806944    6.6480395   -1.0753940 
C    -4.0224646   -3.9621869   -1.8995235 
H     1.5120908    3.5321127   -1.4344090 
H    -2.0325353   -2.5134295    1.2645510 
H     0.2042556    1.0083006   -3.8072371 
H     3.1831584    2.1420540    0.2689614 
H     1.1896982    2.3755765    1.7842372 
H     0.6093159    0.0532467    4.3715389 
H     0.6038388   -2.3081923   -1.0542900 
H     2.6772500    0.4634798   -3.6975743 
H    -3.0032523    1.5966738    2.5565430 
H    -3.1795511   -1.3632685    2.8015539 
H    -0.7077103   -0.5367228   -5.5344879 
H     5.2710989    3.2777542   -0.4791562 
H     0.8340340    4.7949820    2.3038496 
H    -0.1209548   -0.5549868    6.6724671 
H    -0.3497850   -3.8539831   -2.7729376 
H     4.7782670    1.5680786   -4.4253524 
H    -3.3524377    4.0051295    3.0816027 
H    -3.8727060   -2.0223270    5.0881765 
H    -0.9887118   -2.9675883   -5.0254501 
H     6.0675675    3.0038636   -2.8365904 
H    -1.4395930    5.6105466    2.9490077 
H    -2.3624669   -1.6098655    7.0371507 
H    -4.0255797    4.4600539    0.4269279 
H    -5.3541243    3.3628365   -0.1346527 
H    -4.3786320    4.3141452   -1.3273194 
H    -4.7569534   -0.1672780   -3.4600584 
H    -3.2846711   -0.8064252   -4.2667193 
H    -3.8058426    0.9020902   -4.5691855 
H    -1.4509848    6.6149333   -0.0776521 
H    -0.4040416    7.5750701   -1.2017921 
H    -1.7685989    6.5734874   -1.8440418 
H    -3.3973219   -3.8459199   -2.8015510 
H    -4.2500413   -5.0223168   -1.7197062 
H    -4.9519054   -3.3833173   -2.0333052 
