109
Energy =
C     2.0902809   -2.1781163    2.3680298 
C     2.6747184   -2.4091730    1.0875814 
C     3.4952156   -1.4305943    0.4794370 
H     2.3845526   -3.3037621    0.5206374 
Pd    1.3819011   -0.6493795    0.8884831 
P     1.1531127    0.6014854   -1.1089081 
P    -0.7387657   -0.0267062    1.6747637 
H     2.6457180   -1.5252918    3.0587140 
H     3.9562489   -0.6851523    1.1463054 
C    -0.5720534   -4.9874804    4.2501253 
C    -0.6893646   -4.7243503    2.8748626 
C     0.1774041   -3.8191031    2.2556441 
C     1.1739051   -3.1482443    3.0007344 
C     1.2804850   -3.4218317    4.3807668 
C     0.4208609   -4.3391912    4.9978490 
H    -1.2543618   -5.6929274    4.7349474 
H    -1.4665675   -5.2248594    2.2876802 
H     0.0658125   -3.5967838    1.1875988 
H     2.0465836   -2.9090561    4.9732797 
H     0.5203486   -4.5413795    6.0692475 
C     5.4826167   -1.7728151   -3.3166538 
C     5.9901224   -0.9367581   -2.3114411 
C     5.3211451   -0.8250195   -1.0876355 
C     4.1395432   -1.5585965   -0.8377621 
C     3.6422167   -2.4006755   -1.8589560 
C     4.3037949   -2.5016193   -3.0860017 
H     6.0006848   -1.8558637   -4.2776299 
H     6.9057927   -0.3622979   -2.4829070 
H     5.7171802   -0.1637864   -0.3099668 
H     2.7245587   -2.9731874   -1.7005581 
H     3.8977532   -3.1520487   -3.8675588 
O    -3.5112003    2.7424135   -0.5462753 
O    -2.9565193    0.8427013   -2.9320486 
O     0.0325179    5.6647461   -1.0607275 
O    -3.4509412   -3.3724615   -1.3026362 
N    -1.7542333    4.2135157   -0.8347927 
N    -3.2230334   -1.2613728   -2.0351628 
C    -1.3805124    1.8092477   -0.8874214 
C    -1.9773512    0.4519069   -0.8250187 
C     0.0002188    2.0462465   -1.0903053 
C    -1.8010833   -0.4554774    0.2340637 
C    -2.2025464    2.9588232   -0.7740321 
C    -2.7449040   -0.0294965   -1.9308613 
C     0.4850191    3.3582121   -1.1665690 
C    -2.2755118   -1.7825186    0.1217595 
C     0.4793577   -0.4496619   -2.4522001 
C     2.7405909    1.3205303   -1.6816165 
C    -0.9842411    1.7546914    2.0678197 
C    -1.5218640   -0.8068655    3.1424815 
C    -0.4461460    4.4076534   -1.0211318 
C    -2.9718710   -2.1328166   -1.0496972 
C     0.1157563    0.1136597   -3.6936362 
C     3.4978637    2.0368708   -0.7287400 
C     0.1187739    2.6276999    2.1027738 
C    -0.7402611   -0.8883936    4.3112822 
C     0.2744544   -1.8249708   -2.2248812 
C     3.2166561    1.2062029   -2.9998702 
C    -2.2660379    2.2320376    2.4133905 
C    -2.8837838   -1.1725999    3.1931352 
C    -0.4100210   -0.7042239   -4.7020077 
C     4.6888477    2.6709658   -1.1031480 
C    -0.0583183    3.9733343    2.4550901 
C    -1.3045795   -1.3423548    5.5094270 
C    -0.2669618   -2.6345140   -3.2308423 
C     4.4180565    1.8311269   -3.3654749 
C    -2.4367342    3.5753734    2.7652166 
C    -3.4405115   -1.6349585    4.3933386 
C    -0.6024515   -2.0758155   -4.4727487 
C     5.1473137    2.5736635   -2.4264800 
C    -1.3358775    4.4478929    2.7830233 
C    -2.6533610   -1.7235873    5.5510531 
C    -4.3658197    3.8937292   -0.4458387 
C    -3.7565461    0.3920899   -4.0402257 
C    -0.9101822    6.7390123   -0.8985971 
C    -3.2299765   -4.4020582   -0.3403382 
H     1.5377253    3.5973825   -1.3241744 
H    -2.1042482   -2.5002446    0.9254848 
H     0.2215992    1.1905934   -3.8608263 
H     3.1476589    2.1006710    0.3088807 
H     1.1143045    2.2518612    1.8395929 
H     0.3131239   -0.5897005    4.2805958 
H     0.5109853   -2.2449530   -1.2402678 
H     2.6647125    0.6186063   -3.7385311 
H    -3.1282954    1.5585470    2.3962967 
H    -3.5145736   -1.0889229    2.3029634 
H    -0.6882286   -0.2642687   -5.6652243 
H     5.2618951    3.2364205   -0.3610353 
H     0.8013662    4.6508880    2.4652851 
H    -0.6859028   -1.4073566    6.4100171 
H    -0.4479630   -3.6969065   -3.0391614 
H     4.7863167    1.7298309   -4.3913792 
H    -3.4334827    3.9433640    3.0297139 
H    -4.4978047   -1.9184510    4.4241622 
H    -1.0307855   -2.7069366   -5.2579776 
H     6.0805072    3.0650197   -2.7204712 
H    -1.4750842    5.4985328    3.0584002 
H    -3.0925698   -2.0847966    6.4866305 
H    -4.0487357    4.5401083    0.3897462 
H    -5.3727883    3.4911103   -0.2670003 
H    -4.3418232    4.4787512   -1.3805818 
H    -4.7701284    0.1222485   -3.7001044 
H    -3.2947089   -0.4876517   -4.5174332 
H    -3.7912966    1.2436951   -4.7341543 
H    -1.4158248    6.6682485    0.0796955 
H    -0.3129609    7.6595052   -0.9608886 
H    -1.6716936    6.7157850   -1.6964949 
H    -3.6867775   -4.1511621    0.6357403 
H    -3.7098811   -5.3028804   -0.7480807 
H    -2.1481251   -4.5925731   -0.2006569 
