109
Energy =
C    -2.3163576   -2.1574143   -2.1644948 
C    -1.1116444   -2.0828224   -2.9242766 
C     0.0296732   -2.8276307   -2.5454081 
H    -1.0364524   -1.3483650   -3.7372133 
Pd   -0.6347454   -1.3748999   -0.9046118 
P     1.5341457   -0.7263108   -0.2090878 
P    -1.6947209   -0.0207646    0.6915494 
H    -2.5164541   -3.1040284   -1.6396235 
H    -0.1419354   -3.7085130   -1.9071757 
C    -5.8012787    0.1896905   -3.0963479 
C    -4.5258809    0.7768064   -3.1510215 
C    -3.3892465    0.0174622   -2.8584893 
C    -3.5040058   -1.3428622   -2.4922921 
C    -4.7905499   -1.9197580   -2.4411709 
C    -5.9278274   -1.1626080   -2.7488558 
H    -6.6910403    0.7863169   -3.3212676 
H    -4.4226474    1.8343530   -3.4163198 
H    -2.3976303    0.4852891   -2.8770695 
H    -4.8970581   -2.9731706   -2.1583827 
H    -6.9180214   -1.6278279   -2.7073135 
C     3.8030002   -2.9318472   -4.6011239 
C     3.3816562   -4.0140376   -3.8148670 
C     2.1578489   -3.9559851   -3.1391791 
C     1.3228972   -2.8212727   -3.2482301 
C     1.7589388   -1.7397134   -4.0477492 
C     2.9876203   -1.7930710   -4.7117058 
H     4.7636374   -2.9725662   -5.1248583 
H     4.0116059   -4.9040024   -3.7198161 
H     1.8383177   -4.7999025   -2.5192035 
H     1.1405059   -0.8434286   -4.1440073 
H     3.3118849   -0.9417001   -5.3189484 
O     2.0662688    3.5119675    1.2088995 
O     0.5158618    2.4908683    3.6973938 
O    -1.0956348    4.4834938   -1.9096532 
O     3.0889868   -1.2116491    4.7149961 
N     0.4085695    3.9810953   -0.3189266 
N     1.8289579    0.6620651    4.2136958 
C     0.3389920    1.9245812    0.9912873 
C     1.0749705    1.0434382    1.9314600 
C    -0.8869522    1.6041145    0.3830742 
C     1.7369725   -0.1425785    1.5329568 
C     0.9153963    3.1734113    0.6017372 
C     1.1734067    1.3844164    3.3040668 
C    -1.4219783    2.4392260   -0.6243975 
C     2.4382426   -0.9066571    2.4745362 
C    -1.4394410   -0.4725077    2.4576393 
C    -3.5047238    0.2960602    0.6816890 
C     2.1267788    0.6996720   -1.1983436 
C     2.7630564   -2.0801816   -0.3596165 
C    -0.7172693    3.6141836   -0.9446005 
C     2.4409274   -0.4545190    3.8106865 
C    -0.8249889   -1.6937070    2.7909388 
C    -4.3466209   -0.8289271    0.5848663 
C     3.3298591    1.3574673   -0.8659816 
C     4.0139603   -1.9295080   -0.9841710 
C    -1.9312286    0.3656525    3.4803292 
C    -4.0714050    1.5668845    0.9164420 
C     1.3471569    1.1744254   -2.2715457 
C     2.4137358   -3.3268003    0.2047170 
C    -0.6791517   -2.0657262    4.1349448 
C    -5.7342402   -0.6864294    0.7043693 
C     3.7577997    2.4524396   -1.6274945 
C     4.9156798   -3.0036135   -1.0107651 
C    -1.7838940   -0.0110181    4.8197149 
C    -5.4618699    1.7042602    1.0261088 
C     1.7717683    2.2796487   -3.0188379 
C     3.3237862   -4.3908726    0.1884307 
C    -1.1553566   -1.2233918    5.1491628 
C    -6.2950303    0.5810413    0.9173304 
C     2.9813092    2.9146507   -2.7018084 
C     4.5808892   -4.2274366   -0.4148330 
C     2.6463087    4.7819422    0.8593057 
C     0.6149314    2.8636918    5.0820479 
C    -2.2701437    4.1975073   -2.6671018 
C     3.0838139   -0.7629340    6.0816723 
H    -2.3528377    2.1721870   -1.1268243 
H     2.9685203   -1.8260474    2.2218206 
H    -0.4491375   -2.3452156    1.9933977 
H    -3.9101908   -1.8198505    0.4197703 
H     3.9158313    1.0285776   -0.0014584 
H     4.2820184   -0.9847849   -1.4649804 
H    -2.4176701    1.3133919    3.2303941 
H    -3.4321692    2.4483605    1.0236995 
H     0.3886467    0.6897329   -2.4909242 
H     1.4258336   -3.4597859    0.6627461 
H    -0.1867084   -3.0101111    4.3877105 
H    -6.3791560   -1.5668861    0.6212297 
H     4.6934722    2.9587318   -1.3687364 
H     5.8837697   -2.8807769   -1.5068273 
H    -2.1641471    0.6432372    5.6110707 
H    -5.8940240    2.6941774    1.2062743 
H     1.1487263    2.6597077   -3.8346633 
H     3.0499394   -5.3491795    0.6417460 
H    -1.0423310   -1.5130780    6.1990971 
H    -7.3807577    0.6927900    1.0038132 
H     3.3115421    3.7821064   -3.2821896 
H     5.2925441   -5.0592889   -0.4323624 
H     2.8680562    4.8212509   -0.2196947 
H     3.5682429    4.8497268    1.4538024 
H     1.9560493    5.6039591    1.1116477 
H     1.6650728    3.0567852    5.3585355 
H     0.2152325    2.0641569    5.7283180 
H     0.0145778    3.7793434    5.1781564 
H    -3.1658184    4.1359344   -2.0203365 
H    -2.3844528    5.0330610   -3.3720036 
H    -2.1606343    3.2516276   -3.2325344 
H     2.0514766   -0.7008693    6.4665453 
H     3.6596869   -1.5173369    6.6358515 
H     3.5581033    0.2292020    6.1700478 
