109
Energy =
C    -2.2140191   -2.8469988   -1.4745507 
C    -1.3251833   -2.6311174   -2.5516907 
C     0.0731577   -2.8762621   -2.4228818 
H    -1.6973675   -2.1137532   -3.4452966 
Pd   -0.5644922   -1.3744371   -0.8934007 
P     1.5922151   -0.7033488   -0.2618988 
P    -1.6577349    0.1798527    0.4826068 
H    -1.8631906   -3.4824409   -0.6451802 
H     0.3849522   -3.6803016   -1.7416961 
C    -6.4675427   -2.2582498   -1.5592139 
C    -5.7871862   -2.3747930   -0.3365105 
C    -4.4034947   -2.5695873   -0.3205937 
C    -3.6681180   -2.6344008   -1.5266582 
C    -4.3663994   -2.5179498   -2.7507255 
C    -5.7534632   -2.3375564   -2.7648143 
H    -7.5525027   -2.1126870   -1.5719219 
H    -6.3383478   -2.3095806    0.6067544 
H    -3.8732898   -2.6498695    0.6353831 
H    -3.8269733   -2.6014174   -3.6997246 
H    -6.2817011   -2.2651729   -3.7211258 
C     3.0041259   -1.8584749   -5.4079112 
C     1.7946102   -1.1450248   -5.3481695 
C     0.8343907   -1.4675761   -4.3855598 
C     1.0603413   -2.5122933   -3.4579724 
C     2.2802923   -3.2197440   -3.5304320 
C     3.2410121   -2.8972508   -4.4968133 
H     3.7560692   -1.6030169   -6.1615848 
H     1.6042596   -0.3293254   -6.0535114 
H    -0.0954283   -0.8892904   -4.3415717 
H     2.4748607   -4.0276916   -2.8169961 
H     4.1800901   -3.4589910   -4.5335046 
O     2.3048869    3.3919494    1.4065993 
O     0.5878941    2.4318873    3.7191613 
O    -0.8811138    4.8503039   -1.6061758 
O     2.6906115   -1.5549596    4.7394900 
N     0.7077292    4.1401463   -0.0816162 
N     1.6546652    0.4521980    4.2375720 
C     0.4736241    1.9677474    0.9990070 
C     1.0839354    0.9837556    1.9292166 
C    -0.7596269    1.7888355    0.3266617 
C     1.6775737   -0.2352045    1.5233409 
C     1.1417901    3.1980692    0.7559898 
C     1.1348315    1.2674738    3.3192892 
C    -1.2311550    2.7736095   -0.5532437 
C     2.2362785   -1.0988928    2.4756972 
C    -1.7111781   -0.1763504    2.2772731 
C    -3.3779589    0.5684180   -0.0275215 
C     2.2756641    0.7409523   -1.1513667 
C     2.8029074   -2.0752836   -0.4293419 
C    -0.4397691    3.9265043   -0.7315670 
C     2.1805974   -0.7053703    3.8282493 
C    -2.0454825    0.8250272    3.2142010 
C    -3.6513883    0.6021622   -1.4119699 
C     3.4733200    1.3552295   -0.7277811 
C     4.0460471   -1.9294468   -1.0715925 
C    -1.4139078   -1.4793433    2.7234719 
C    -4.4173825    0.8271878    0.8871617 
C     1.5784892    1.2527309   -2.2626147 
C     2.4339843   -3.3392191    0.0839384 
C    -2.0986445    0.5124701    4.5779808 
C    -4.9315075    0.9293027   -1.8731187 
C     3.9730541    2.4585129   -1.4306533 
C     4.9165021   -3.0255274   -1.1743912 
C    -1.4523290   -1.7812601    4.0917098 
C    -5.6997597    1.1458397    0.4199385 
C     2.0764296    2.3658050   -2.9514771 
C     3.3086141   -4.4281701   -0.0149786 
C    -1.7988725   -0.7867229    5.0181248 
C    -5.9576967    1.2044083   -0.9569041 
C     3.2755239    2.9654690   -2.5389684 
C     4.5551575   -4.2713775   -0.6439727 
C     2.9735226    4.6477761    1.2080012 
C     0.6828770    2.7632632    5.1138391 
C    -0.0772125    6.0288993   -1.7874937 
C     2.6362633   -1.1575859    6.1205055 
H    -2.1776846    2.6876996   -1.0897262 
H     2.7189089   -2.0423493    2.2171559 
H    -2.2315351    1.8506430    2.8797593 
H    -2.8559687    0.3605671   -2.1278201 
H     3.9981276    0.9853102    0.1590745 
H     4.3318584   -0.9691242   -1.5094994 
H    -1.1313084   -2.2479765    1.9943743 
H    -4.2350055    0.7712896    1.9637929 
H     0.6369629    0.7852377   -2.5680821 
H     1.4559744   -3.4679529    0.5643055 
H    -2.3628881    1.2902474    5.3018688 
H    -5.1327294    0.9501765   -2.9485194 
H     4.9044372    2.9324151   -1.1039052 
H     5.8792065   -2.9022530   -1.6809993 
H    -1.2047506   -2.7911218    4.4340934 
H    -6.5017180    1.3450391    1.1383117 
H     1.5228214    2.7690427   -3.8054753 
H     3.0165444   -5.4005403    0.3947990 
H    -1.8302323   -1.0221784    6.0870603 
H    -6.9616195    1.4507729   -1.3173951 
H     3.6661690    3.8347564   -3.0783968 
H     5.2382156   -5.1230240   -0.7260462 
H     3.2294695    4.7879041    0.1444834 
H     3.8829376    4.5907880    1.8229053 
H     2.3341659    5.4844433    1.5365684 
H     1.7389189    2.8410305    5.4229762 
H     0.1854686    1.9971424    5.7318142 
H     0.1777494    3.7343053    5.2149656 
H     0.9274205    5.7620156   -2.1581195 
H    -0.6157415    6.6349340   -2.5295930 
H     0.0281630    6.5816283   -0.8384856 
H     1.5908836   -1.0122193    6.4430811 
H     3.1021217   -1.9825543    6.6775710 
H     3.1929256   -0.2185642    6.2805978 
