109
Energy =
C    -2.3760863   -2.0162631   -2.2697393 
C    -1.1488246   -2.0495265   -3.0006218 
C    -0.0769888   -2.8840698   -2.6112914 
H    -0.9838531   -1.3075105   -3.7925397 
Pd   -0.6781144   -1.4495654   -0.9370948 
P     1.4766567   -0.7796600   -0.2421783 
P    -1.7806468   -0.2111149    0.7074627 
H    -2.7080855   -2.9457699   -1.7845534 
H    -0.3213885   -3.7586998   -1.9878985 
C    -5.4636570    0.8891927   -3.0305942 
C    -4.1204516    1.2121086   -3.2851827 
C    -3.1157736    0.2680788   -3.0503113 
C    -3.4281817   -1.0201886   -2.5549681 
C    -4.7834672   -1.3294114   -2.3094513 
C    -5.7901037   -0.3852778   -2.5449549 
H    -6.2502959    1.6301485   -3.2057742 
H    -3.8503101    2.2101248   -3.6462151 
H    -2.0703725    0.5495743   -3.2183966 
H    -5.0469631   -2.3211731   -1.9282662 
H    -6.8336449   -0.6443064   -2.3402193 
C     3.7580041   -3.1701947   -4.5316814 
C     3.2713619   -4.2187602   -3.7376605 
C     2.0277818   -4.1024392   -3.1069879 
C     1.2383136   -2.9415310   -3.2687086 
C     1.7448593   -1.8899925   -4.0677696 
C     2.9914645   -2.0033658   -4.6893828 
H     4.7327356   -3.2577744   -5.0225673 
H     3.8647736   -5.1284000   -3.6027762 
H     1.6553005   -4.9218722   -2.4834166 
H     1.1677463   -0.9704954   -4.1982996 
H     3.3682056   -1.1770058   -5.3009440 
O     1.8273253    3.4798152    1.0939072 
O     0.3416067    2.4348336    3.6366812 
O    -1.5905654    4.2060962   -1.9334329 
O     3.1008820   -1.1259221    4.6678756 
N     0.0964464    3.8794731   -0.3796638 
N     1.7457862    0.6776629    4.1577264 
C     0.1502886    1.8326285    0.9459622 
C     0.9477395    0.9946618    1.8789455 
C    -1.0945723    1.4622222    0.3836249 
C     1.6694572   -0.1593472    1.4870701 
C     0.6670150    3.0919540    0.5331148 
C     1.0458883    1.3557621    3.2471051 
C    -1.6929930    2.2700925   -0.5984603 
C     2.4190000   -0.8754581    2.4294058 
C    -1.4691356   -0.6245968    2.4731390 
C    -3.6165476   -0.1287878    0.7299576 
C     2.0183742    0.6562445   -1.2509841 
C     2.7447888   -2.0959792   -0.3918802 
C    -1.0354714    3.4624526   -0.9541366 
C     2.4095449   -0.4110993    3.7609497 
C    -0.7842194   -1.8029272    2.8205668 
C    -4.2658014   -1.3766462    0.8474938 
C     3.2034074    1.3539132   -0.9361603 
C     2.4397918   -3.3434314    0.1960813 
C    -2.0051343    0.2005196    3.4842626 
C    -4.3786354    1.0535140    0.7780726 
C     1.2148179    1.0983088   -2.3201073 
C     3.9780989   -1.9225007   -1.0451977 
C    -0.6113490   -2.1439649    4.1697989 
C    -5.6532334   -1.4414003    1.0140136 
C     3.5919338    2.4534774   -1.7125144 
C     3.3778031   -4.3827374    0.1781350 
C    -1.8298304   -0.1450395    4.8285804 
C    -5.7727382    0.9810257    0.9220507 
C     1.5990837    2.2075526   -3.0834999 
C     4.9068304   -2.9731386   -1.0753534 
C    -1.1303569   -1.3138234    5.1730887 
C    -6.4113544   -0.2605719    1.0435586 
C     2.7934272    2.8803081   -2.7856481 
C     4.6174647   -4.1955014   -0.4532180 
C     2.3506094    4.7637067    0.7161848 
C     0.4329585    2.8218549    5.0177665 
C    -0.9208985    5.4261866   -2.2974537 
C     3.0809251   -0.6650863    6.0303115 
H    -2.6180466    1.9956762   -1.1061541 
H     2.9921667   -1.7697676    2.1798767 
H    -0.3753667   -2.4434397    2.0308652 
H    -3.6751173   -2.3005020    0.8190283 
H     3.8079473    1.0499385   -0.0753303 
H     1.4639976   -3.4962916    0.6729898 
H    -2.5493859    1.1126574    3.2190837 
H    -3.8942403    2.0318985    0.7206380 
H     0.2698805    0.5827444   -2.5253274 
H     4.2120853   -0.9777289   -1.5434539 
H    -0.0635671   -3.0538118    4.4350976 
H    -6.1446705   -2.4149172    1.1120186 
H     4.5155363    2.9886617   -1.4687716 
H     3.1383080   -5.3411305    0.6502927 
H    -2.2439709    0.4981692    5.6119749 
H    -6.3586976    1.9055245    0.9508646 
H     0.9579123    2.5544906   -3.9004403 
H     5.8608155   -2.8328716   -1.5936411 
H    -0.9956139   -1.5795482    6.2268028 
H    -7.4984354   -0.3089931    1.1647411 
H     3.0974109    3.7468658   -3.3821778 
H     5.3506596   -5.0083837   -0.4730967 
H     2.5462448    4.7990200   -0.3684220 
H     3.2854818    4.8719348    1.2839687 
H     1.6406215    5.5653627    0.9804902 
H     1.4744497    3.0679640    5.2849254 
H     0.0778060    2.0084865    5.6727032 
H    -0.2109189    3.7076693    5.1125749 
H     0.1000377    5.2171359   -2.6606838 
H    -1.5341965    5.8657053   -3.0966356 
H    -0.8589077    6.1114361   -1.4351636 
H     2.0489987   -0.6513128    6.4209719 
H     3.6971914   -1.3842828    6.5878680 
H     3.5051306    0.3504738    6.1067843 
