109
Energy =
C    -2.2015247   -2.8280864   -1.5258201 
C    -1.2972274   -2.6086540   -2.5892724 
C     0.0985136   -2.8587908   -2.4426175 
H    -1.6554578   -2.0844760   -3.4846300 
Pd   -0.5557381   -1.3646211   -0.9127740 
P     1.5935628   -0.7076811   -0.2425612 
P    -1.6635537    0.1855247    0.4560624 
H    -1.8644146   -3.4696451   -0.6954474 
H     0.3985160   -3.6684025   -1.7627651 
C    -6.4513170   -2.2232658   -1.6660782 
C    -5.7881139   -2.3467777   -0.4346664 
C    -4.4055189   -2.5469088   -0.4006150 
C    -3.6540749   -2.6100999   -1.5968040 
C    -4.3351216   -2.4865244   -2.8298172 
C    -5.7212035   -2.3008982   -2.8621328 
H    -7.5354807   -2.0737483   -1.6930150 
H    -6.3518372   -2.2827768    0.5012387 
H    -3.8886422   -2.6323172    0.5621727 
H    -3.7831057   -2.5687179   -3.7716750 
H    -6.2361209   -2.2233261   -3.8252728 
C     3.0734353   -1.8276378   -5.3791295 
C     1.8651222   -1.1112969   -5.3309897 
C     0.8907727   -1.4381387   -4.3841598 
C     1.1009791   -2.4902687   -3.4612566 
C     2.3199404   -3.2005382   -3.5218749 
C     3.2948614   -2.8736543   -4.4724313 
H     3.8364176   -1.5688720   -6.1204769 
H     1.6867349   -0.2900382   -6.0330073 
H    -0.0379245   -0.8574656   -4.3486843 
H     2.5023059   -4.0142701   -2.8117976 
H     4.2328138   -3.4377805   -4.5003067 
O     2.2979813    3.3710842    1.4713164 
O     0.5391619    2.4005588    3.7468458 
O    -0.8283544    4.8667658   -1.5853531 
O     2.6059710   -1.6044527    4.7692816 
N     0.7302523    4.1378785   -0.0385844 
N     1.5877409    0.4115471    4.2666477 
C     0.4674584    1.9586797    1.0214014 
C     1.0573733    0.9642566    1.9536578 
C    -0.7550609    1.7909448    0.3269546 
C     1.6515360   -0.2544610    1.5477138 
C     1.1454325    3.1875768    0.7992782 
C     1.0869277    1.2366506    3.3465944 
C    -1.2067702    2.7843930   -0.5535963 
C     2.1903542   -1.1284773    2.5020955 
C    -1.7493057   -0.1833918    2.2469314 
C    -3.3729802    0.5858792   -0.0805455 
C     2.2986160    0.7403703   -1.1086795 
C     2.8006489   -2.0837934   -0.4020112 
C    -0.4067921    3.9345770   -0.7098930 
C     2.1146834   -0.7453327    3.8566822 
C    -2.0929976    0.8130808    3.1856881 
C    -3.6235009    0.6267547   -1.4691029 
C     3.4914945    1.3455623   -0.6592265 
C     2.4184004   -3.3501747    0.0952062 
C    -1.4681150   -1.4916368    2.6881784 
C    -4.4259299    0.8461347    0.8181028 
C     1.6238198    1.2638392   -2.2283245 
C     4.0539111   -1.9384471   -1.0244196 
C    -2.1711618    0.4906532    4.5459680 
C    -4.8944511    0.9615060   -1.9497646 
C     4.0089574    2.4516771   -1.3445977 
C     3.2894768   -4.4423168    0.0002858 
C    -1.5318015   -1.8036175    4.0532072 
C    -5.6989851    1.1727258    0.3313214 
C     2.1392777    2.3797179   -2.8996336 
C     4.9208274   -3.0376805   -1.1233509 
C    -1.8874265   -0.8137763    4.9811992 
C    -5.9341984    1.2376904   -1.0493157 
C     3.3336256    2.9704588   -2.4611976 
C     4.5459517   -4.2861710   -0.6087808 
C     2.9756721    4.6252138    1.2938444 
C     0.6127908    2.7202958    5.1455110 
C    -0.0159016    6.0427489   -1.7439802 
C     2.5310406   -1.2176322    6.1523247 
H    -2.1444204    2.7069783   -1.1067271 
H     2.6724994   -2.0722665    2.2438790 
H    -2.2668289    1.8423685    2.8560123 
H    -2.8175245    0.3844360   -2.1728029 
H     3.9986304    0.9662903    0.2339332 
H     1.4327296   -3.4783511    0.5597989 
H    -1.1782880   -2.2566826    1.9581295 
H    -4.2614692    0.7849141    1.8973370 
H     0.6859352    0.8029927   -2.5544667 
H     4.3506056   -0.9758580   -1.4499460 
H    -2.4422958    1.2647755    5.2712196 
H    -5.0779903    0.9875653   -3.0282201 
H     4.9366674    2.9184327   -0.9977589 
H     2.9869165   -5.4166613    0.3975726 
H    -1.2969670   -2.8177426    4.3919529 
H    -6.5115916    1.3730328    1.0373084 
H     1.6030188    2.7920209   -3.7603407 
H     5.8915724   -2.9146998   -1.6144488 
H    -1.9383654   -1.0570358    6.0476272 
H    -6.9309463    1.4901982   -1.4251322 
H     3.7379242    3.8419101   -2.9868903 
H     5.2262670   -5.1402975   -0.6877835 
H     3.2504954    4.7721916    0.2359916 
H     3.8740902    4.5593028    1.9238348 
H     2.3345645    5.4623483    1.6177737 
H     1.6639550    2.7904921    5.4725598 
H     0.1016894    1.9516650    5.7490317 
H     0.1106144    3.6929136    5.2461932 
H     0.9938382    5.7737231   -2.0988381 
H    -0.5384636    6.6566659   -2.4909975 
H     0.0753178    6.5881443   -0.7892722 
H     1.4812489   -1.0697045    6.4590082 
H     2.9838733   -2.0491733    6.7103522 
H     3.0894480   -0.2825947    6.3288341 
