109
Energy =
C    -2.3418241   -2.1866570   -2.1073781 
C    -1.1492478   -2.1154272   -2.8863455 
C     0.0004827   -2.8524300   -2.5177733 
H    -1.0892317   -1.3888307   -3.7075480 
Pd   -0.6437025   -1.3858747   -0.8814602 
P     1.5333250   -0.7236344   -0.2254360 
P    -1.6835439   -0.0193758    0.7174661 
H    -2.5303018   -3.1286053   -1.5699694 
H    -0.1581161   -3.7276316   -1.8684455 
C    -5.8494243    0.1382153   -3.0093791 
C    -4.5772211    0.7293082   -3.0897764 
C    -3.4333977   -0.0228291   -2.8067881 
C    -3.5374245   -1.3797173   -2.4249298 
C    -4.8208728   -1.9606459   -2.3479782 
C    -5.9655718   -1.2108079   -2.6458826 
H    -6.7447658    0.7292500   -3.2268107 
H    -4.4820405    1.7843503   -3.3677378 
H    -2.4439469    0.4483963   -2.8451932 
H    -4.9190582   -3.0114332   -2.0527049 
H    -6.9532707   -1.6790817   -2.5841720 
C     3.7417961   -2.9640049   -4.6307961 
C     3.3364334   -4.0399410   -3.8277435 
C     2.1231020   -3.9793875   -3.1336386 
C     1.2826606   -2.8485499   -3.2405754 
C     1.7025783   -1.7732607   -4.0569871 
C     2.9209426   -1.8289936   -4.7394896 
H     4.6942150   -3.0067045   -5.1691762 
H     3.9708150   -4.9269009   -3.7340321 
H     1.8162847   -4.8182351   -2.5005024 
H     1.0797444   -0.8798765   -4.1520087 
H     3.2327633   -0.9824779   -5.3598998 
O     2.0728135    3.5306027    1.1422813 
O     0.5647387    2.5296165    3.6637555 
O    -1.1405036    4.4615343   -1.9359650 
O     3.1633929   -1.1555481    4.6792449 
N     0.3900818    3.9793829   -0.3641786 
N     1.8908648    0.7097678    4.1783007 
C     0.3479513    1.9354124    0.9666276 
C     1.1012113    1.0660739    1.9040848 
C    -0.8861142    1.6049343    0.3805120 
C     1.7606999   -0.1219599    1.5074296 
C     0.9139201    3.1823300    0.5562068 
C     1.2195173    1.4211317    3.2715505 
C    -1.4394974    2.4284470   -0.6266028 
C     2.4783958   -0.8745923    2.4458464 
C    -1.3996908   -0.4525398    2.4838482 
C    -3.4945737    0.2912989    0.7323971 
C     2.1061746    0.6945166   -1.2373389 
C     2.7643078   -2.0750158   -0.3815393 
C    -0.7440035    3.6027050   -0.9687940 
C     2.4998502   -0.4091494    3.7772528 
C    -0.7761783   -1.6683604    2.8199602 
C    -4.3338573   -0.8374778    0.6598970 
C     3.3120645    1.3590716   -0.9294612 
C     2.4278193   -3.3171557    0.2002108 
C    -1.8785288    0.3943825    3.5054721 
C    -4.0620759    1.5624579    0.9632502 
C     1.3087666    1.1568227   -2.3029045 
C     4.0048642   -1.9266040   -1.0269492 
C    -0.6083099   -2.0261497    4.1652628 
C    -5.7199691   -0.6985186    0.7994349 
C     3.7249572    2.4481491   -1.7075742 
C     3.3408313   -4.3786219    0.1798248 
C    -1.7092488    0.0318764    4.8461666 
C    -5.4511734    1.6962070    1.0929409 
C     1.7184788    2.2563299   -3.0668139 
C     4.9094085   -2.9982261   -1.0574038 
C    -1.0716309   -1.1750569    5.1781266 
C    -6.2819163    0.5691192    1.0082962 
C     2.9307083    2.8979503   -2.7741637 
C     4.5878368   -4.2172355   -0.4445807 
C     2.6429285    4.7991204    0.7717165 
C     0.6838658    2.9167177    5.0428943 
C    -2.3259613    4.1646529   -2.6718763 
C     3.1777882   -0.6930192    6.0412407 
H    -2.3770450    2.1534705   -1.1120375 
H     3.0074595   -1.7950158    2.1943099 
H    -0.4106201   -2.3267961    2.0233402 
H    -3.8965047   -1.8285225    0.4980362 
H     3.9120280    1.0401604   -0.0708265 
H     1.4477085   -3.4486268    0.6750954 
H    -2.3720085    1.3379400    3.2534911 
H    -3.4243851    2.4471096    1.0519578 
H     0.3485583    0.6672301   -2.5029526 
H     4.2624668   -0.9857057   -1.5207850 
H    -0.1086859   -2.9662351    4.4199523 
H    -6.3629397   -1.5819734    0.7351635 
H     4.6628994    2.9595912   -1.4678760 
H     3.0770578   -5.3333810    0.6464091 
H    -2.0794188    0.6929508    5.6366325 
H    -5.8840237    2.6864180    1.2697894 
H     1.0819349    2.6268802   -3.8765738 
H     5.8691680   -2.8773096   -1.5698568 
H    -0.9414938   -1.4536931    6.2290709 
H    -7.3665733    0.6780467    1.1103872 
H     3.2493548    3.7608835   -3.3676141 
H     5.3017792   -5.0470536   -0.4651992 
H     2.8476439    4.8289987   -0.3109462 
H     3.5738088    4.8755606    1.3510166 
H     1.9538641    5.6211962    1.0271232 
H     1.7375623    3.1153737    5.3013435 
H     0.2963268    2.1227223    5.7032558 
H     0.0824852    3.8317033    5.1389165 
H    -3.2110013    4.1063240   -2.0103481 
H    -2.4542644    4.9931465   -3.3826811 
H    -2.2223455    3.2138222   -3.2300753 
H     2.1512404   -0.6292668    6.4410229 
H     3.7637031   -1.4405177    6.5942490 
H     3.6510739    0.3009823    6.1124142 
