109
Energy =
C     1.9897328   -2.3111506    2.3619527 
C     2.6757508   -2.4710560    1.1189496 
C     3.5465970   -1.4760193    0.6206356 
H     2.4104840   -3.3175961    0.4725396 
Pd    1.4413322   -0.6567536    0.9672699 
P     1.2002676    0.5805231   -1.0287482 
P    -0.6288215    0.0021015    1.8244511 
H     2.4958980   -1.7426498    3.1558986 
H     3.9720957   -0.7691429    1.3504540 
C    -1.0943514   -5.0096415    3.6883219 
C    -0.8797881   -4.8132154    2.3140036 
C     0.1275958   -3.9465538    1.8784520 
C     0.9437607   -3.2546826    2.8046855 
C     0.7172694   -3.4671988    4.1816846 
C    -0.2903388   -4.3353931    4.6187267 
H    -1.8879851   -5.6815481    4.0306416 
H    -1.5135123   -5.3184657    1.5774334 
H     0.2563684   -3.7765560    0.8038391 
H     1.3388012   -2.9431041    4.9146842 
H    -0.4528469   -4.4792669    5.6915338 
C     5.7024590   -1.5958460   -3.0960094 
C     6.1333150   -0.7791254   -2.0405061 
C     5.4108022   -0.7409408   -0.8429542 
C     4.2506092   -1.5291389   -0.6703902 
C     3.8254995   -2.3440218   -1.7455187 
C     4.5426057   -2.3740738   -2.9447378 
H     6.2642723   -1.6237474   -4.0353425 
H     7.0315612   -0.1638291   -2.1516766 
H     5.7487459   -0.0969473   -0.0243016 
H     2.9221344   -2.9528431   -1.6512759 
H     4.1953958   -3.0083857   -3.7668806 
O    -3.5120221    2.6056863   -0.4229710 
O    -2.9253000    0.6356014   -2.7712726 
O    -0.0662133    5.6054990   -1.1185999 
O    -3.2761594   -3.5383813   -0.8145002 
N    -1.8042815    4.1128561   -0.8007842 
N    -3.1555765   -1.4355252   -1.7789744 
C    -1.3639248    1.7178852   -0.7823922 
C    -1.9300476    0.3496184   -0.6558336 
C     0.0037263    1.9879167   -1.0327964 
C    -1.7375551   -0.5098443    0.4519718 
C    -2.2146665    2.8488436   -0.6875045 
C    -2.6931933   -0.1853868   -1.7304608 
C     0.4483065    3.3097498   -1.1655735 
C    -2.1981815   -1.8367522    0.4033369 
C     0.5389347   -0.5176740   -2.3437453 
C     2.7648355    1.3211548   -1.6336519 
C    -0.9140731    1.7898600    2.1523148 
C    -1.2424651   -0.7045397    3.4059143 
C    -0.5075645    4.3373065   -1.0276827 
C    -2.8849162   -2.2487194   -0.7539192 
C     0.1477676    0.0069656   -3.5935351 
C     3.5083087    2.0826972   -0.7051742 
C     0.1567540    2.7013336    2.1233112 
C    -0.4016665   -0.4890427    4.5189655 
C     0.3724155   -1.8920533   -2.0840366 
C     3.2418755    1.1757424   -2.9486421 
C    -2.2014120    2.2299048    2.5258618 
C    -2.5046254   -1.2968208    3.5980565 
C    -0.3644697   -0.8475437   -4.5785496 
C     4.6824137    2.7337494   -1.1025922 
C    -0.0595591    4.0504477    2.4392255 
C    -0.8170613   -0.8562760    5.8032662 
C    -0.1545810   -2.7397529   -3.0661700 
C     4.4281348    1.8159151   -3.3362785 
C    -2.4110210    3.5769114    2.8405004 
C    -2.9060060   -1.6843446    4.8857614 
C    -0.5150252   -2.2189936   -4.3178403 
C     5.1404550    2.6058626   -2.4232744 
C    -1.3430658    4.4886556    2.7936897 
C    -2.0690780   -1.4631575    5.9879902 
C    -4.3925034    3.7378130   -0.3307463 
C    -3.7231638    0.1275788   -3.8528934 
C    -1.0344782    6.6575534   -0.9622390 
C    -3.9752680   -3.9622269   -1.9982001 
H     1.4898976    3.5716854   -1.3578599 
H    -2.0193879   -2.5538698    1.2050139 
H     0.2246002    1.0820378   -3.7864651 
H     3.1605798    2.1672201    0.3316534 
H     1.1560044    2.3528936    1.8384987 
H     0.5794658   -0.0198774    4.3753032 
H     0.6306276   -2.2823471   -1.0932021 
H     2.7010851    0.5544310   -3.6677665 
H    -3.0358284    1.5221026    2.5610122 
H    -3.1852601   -1.4445230    2.7553332 
H    -0.6614729   -0.4375359   -5.5493939 
H     5.2438396    3.3345966   -0.3796776 
H     0.7738272    4.7590774    2.3993219 
H    -0.1592600   -0.6769225    6.6600085 
H    -0.2970616   -3.8031909   -2.8478587 
H     4.7973717    1.6907277   -4.3592106 
H    -3.4114739    3.9172553    3.1272560 
H    -3.8864573   -2.1513393    5.0251547 
H    -0.9259835   -2.8798122   -5.0883094 
H     6.0610215    3.1098383   -2.7351864 
H    -1.5124615    5.5420694    3.0400393 
H    -2.3927193   -1.7596654    6.9910314 
H    -4.0697310    4.4150846    0.4777424 
H    -5.3837439    3.3156672   -0.1129559 
H    -4.4086937    4.2970533   -1.2813574 
H    -4.7302223   -0.1473402   -3.4967083 
H    -3.2463413   -0.7584835   -4.3038511 
H    -3.7809215    0.9504220   -4.5793239 
H    -1.5118050    6.6022338    0.0311598 
H    -0.4656136    7.5919856   -1.0676884 
H    -1.8159438    6.5895356   -1.7380265 
H    -3.3444996   -3.8251878   -2.8933791 
H    -4.1956011   -5.0271242   -1.8386778 
H    -4.9083501   -3.3885024   -2.1287778 
