109
Energy =
C     2.0840356   -2.1311190    2.4158405 
C     2.6767993   -2.3819480    1.1429105 
C     3.4976757   -1.4110932    0.5230718 
H     2.3928100   -3.2869222    0.5894453 
Pd    1.3797894   -0.6299401    0.9070852 
P     1.1571919    0.5853664   -1.1129403 
P    -0.7466479   -0.0003708    1.6717988 
H     2.6335795   -1.4653115    3.0988065 
H     3.9525187   -0.6530583    1.1799090 
C    -0.5819115   -4.9159171    4.3291390 
C    -0.6903329   -4.6778229    2.9485924 
C     0.1777105   -3.7807395    2.3193565 
C     1.1666419   -3.0931696    3.0592917 
C     1.2644225   -3.3417983    4.4446805 
C     0.4033518   -4.2507469    5.0721171 
H    -1.2650661   -5.6151876    4.8216418 
H    -1.4616169   -5.1914980    2.3650279 
H     0.0730968   -3.5782127    1.2466629 
H     2.0249007   -2.8162329    5.0331892 
H     0.4954929   -4.4328622    6.1477595 
C     5.5061206   -1.8084300   -3.2565429 
C     6.0056645   -0.9544986   -2.2624334 
C     5.3300702   -0.8253084   -1.0439977 
C     4.1496815   -1.5588236   -0.7882685 
C     3.6606373   -2.4192990   -1.7980598 
C     4.3288175   -2.5377809   -3.0199478 
H     6.0290940   -1.9048209   -4.2136003 
H     6.9201514   -0.3795867   -2.4386121 
H     5.7198231   -0.1501668   -0.2751720 
H     2.7443221   -2.9926253   -1.6349543 
H     3.9292552   -3.2025372   -3.7927397 
O    -3.5170106    2.7197327   -0.6113511 
O    -2.9435198    0.7802706   -2.9606765 
O     0.0189210    5.6446503   -1.1632899 
O    -3.4336441   -3.4068465   -1.2593887 
N    -1.7638238    4.1915001   -0.9188679 
N    -3.2083292   -1.3084000   -2.0280207 
C    -1.3815582    1.7880059   -0.9255071 
C    -1.9742572    0.4299715   -0.8420221 
C    -0.0006526    2.0261447   -1.1257814 
C    -1.8006182   -0.4579616    0.2338611 
C    -2.2080698    2.9365668   -0.8370337 
C    -2.7345451   -0.0733771   -1.9430787 
C     0.4799945    3.3381856   -1.2237855 
C    -2.2704206   -1.7882767    0.1426585 
C     0.4938034   -0.4914111   -2.4409512 
C     2.7450882    1.2999203   -1.6899947 
C    -0.9996322    1.7869518    2.0318470 
C    -1.5342123   -0.7563335    3.1497279 
C    -0.4555291    4.3868178   -1.1025122 
C    -2.9596450   -2.1614480   -1.0259682 
C     0.1345502    0.0488870   -3.6938057 
C     3.4949344    2.0352243   -0.7457630 
C     0.1005404    2.6638468    2.0571983 
C    -0.7581155   -0.8131148    4.3236585 
C     0.2923725   -1.8632393   -2.1906340 
C     3.2281020    1.1649918   -3.0037465 
C    -2.2847065    2.2664064    2.3619808 
C    -2.8951461   -1.1256408    3.2006493 
C    -0.3834026   -0.7882675   -4.6903360 
C     4.6853125    2.6675123   -1.1250770 
C    -0.0824666    4.0149486    2.3846704 
C    -1.3269834   -1.2457127    5.5275342 
C    -0.2414247   -2.6920355   -3.1849146 
C     4.4288260    1.7884035   -3.3741013 
C    -2.4613340    3.6152550    2.6888985 
C    -3.4563907   -1.5666098    4.4067839 
C    -0.5725000   -2.1562663   -4.4380615 
C     5.1504714    2.5498290   -2.4444011 
C    -1.3632165    4.4913573    2.6970706 
C    -2.6747850   -1.6302903    5.5698808 
C    -4.3760371    3.8696485   -0.5358450 
C    -3.7365712    0.3077278   -4.0647041 
C    -0.9281794    6.7184096   -1.0250902 
C    -3.2137630   -4.4188372   -0.2783793 
H     1.5326046    3.5781181   -1.3808631 
H    -2.1010869   -2.4911421    0.9598269 
H     0.2376739    1.1230792   -3.8792153 
H     3.1393560    2.1152594    0.2889124 
H     1.0985459    2.2865566    1.8057415 
H     0.2945534   -0.5119873    4.2923050 
H     0.5254589   -2.2651333   -1.1976804 
H     2.6821333    0.5626300   -3.7349109 
H    -3.1448364    1.5900563    2.3522620 
H    -3.5217157   -1.0612899    2.3059043 
H    -0.6580790   -0.3662025   -5.6625230 
H     5.2527540    3.2473516   -0.3897931 
H     0.7751583    4.6951714    2.3876763 
H    -0.7125927   -1.2914388    6.4322363 
H    -0.4200134   -3.7514847   -2.9755527 
H     4.8025950    1.6710648   -4.3962925 
H    -3.4606059    3.9848197    2.9413927 
H    -4.5129719   -1.8526913    4.4379008 
H    -0.9948536   -2.8024490   -5.2142301 
H     6.0827850    3.0404382   -2.7423847 
H    -1.5070769    5.5463214    2.9528020 
H    -3.1175964   -1.9745721    6.5101231 
H    -4.0652256    4.5321362    0.2894276 
H    -5.3824780    3.4668140   -0.3545623 
H    -4.3495042    4.4377642   -1.4808832 
H    -4.7511509    0.0411231   -3.7250083 
H    -3.2698417   -0.5790483   -4.5237432 
H    -3.7700851    1.1467378   -4.7738715 
H    -1.4378007    6.6639719   -0.0478130 
H    -0.3338597    7.6396818   -1.1018503 
H    -1.6861446    6.6777822   -1.8256592 
H    -3.6758394   -4.1526314    0.6911339 
H    -3.6888253   -5.3281969   -0.6726077 
H    -2.1319396   -4.6032456   -0.1305885 
