109
Energy =
C     1.9835634   -2.2637825    2.4120542 
C     2.6774006   -2.4424940    1.1759255 
C     3.5478251   -1.4533289    0.6654134 
H     2.4186801   -3.3008831    0.5425833 
Pd    1.4376683   -0.6353986    0.9862721 
P     1.2037060    0.5659588   -1.0323374 
P    -0.6388709    0.0320967    1.8208605 
H     2.4834560   -1.6805436    3.1992746 
H     3.9670065   -0.7325198    1.3851916 
C    -1.0997700   -4.9496809    3.7655780 
C    -0.8779042   -4.7754419    2.3894285 
C     0.1292718   -3.9129156    1.9452816 
C     0.9380252   -3.2032167    2.8645011 
C     0.7043940   -3.3937137    4.2435181 
C    -0.3031323   -4.2575936    4.6891986 
H    -1.8933608   -5.6182357    4.1145033 
H    -1.5058641   -5.2947734    1.6577246 
H     0.2636298   -3.7603230    0.8687382 
H     1.3203119   -2.8557753    4.9712097 
H    -0.4714357   -4.3840778    5.7633026 
C     5.7251632   -1.6312982   -3.0364029 
C     6.1480906   -0.7956715   -1.9925659 
C     5.4186337   -0.7387914   -0.7999704 
C     4.2592665   -1.5266732   -0.6205640 
C     3.8421059   -2.3606727   -1.6841056 
C     4.5661695   -2.4095105   -2.8785102 
H     6.2924830   -1.6739627   -3.9718656 
H     7.0455744   -0.1802536   -2.1090849 
H     5.7503970   -0.0800953    0.0094667 
H     2.9394882   -2.9698028   -1.5847577 
H     4.2250078   -3.0584315   -3.6917430 
O    -3.5168980    2.5881246   -0.4857857 
O    -2.9125176    0.5794455   -2.7972499 
O    -0.0755692    5.5851348   -1.2147135 
O    -3.2601839   -3.5617186   -0.7713431 
N    -1.8112618    4.0933690   -0.8804734 
N    -3.1416783   -1.4751582   -1.7708258 
C    -1.3646739    1.7003058   -0.8192951 
C    -1.9276312    0.3328265   -0.6720782 
C     0.0035214    1.9697359   -1.0673270 
C    -1.7386542   -0.5067395    0.4514412 
C    -2.2188956    2.8303495   -0.7478610 
C    -2.6834436   -0.2228955   -1.7413398 
C     0.4452791    3.2903278   -1.2202970 
C    -2.1950031   -1.8357160    0.4232773 
C     0.5523505   -0.5572125   -2.3310020 
C     2.7694432    1.3002135   -1.6419095 
C    -0.9305326    1.8244508    2.1164192 
C    -1.2597689   -0.6492407    3.4104895 
C    -0.5140097    4.3174542   -1.1046516 
C    -2.8738989   -2.2697979   -0.7305437 
C     0.1659739   -0.0560367   -3.5918561 
C     3.5059073    2.0797882   -0.7228775 
C     0.1379654    2.7382516    2.0763927 
C    -0.4252171   -0.4148954    4.5243925 
C     0.3887917   -1.9273281   -2.0478689 
C     3.2537993    1.1334659   -2.9516641 
C    -2.2207600    2.2674978    2.4762182 
C    -2.5227344   -1.2389519    3.6054744 
C    -0.3386698   -0.9294439   -4.5641222 
C     4.6802843    2.7272346   -1.1253241 
C    -0.0833973    4.0921072    2.3674625 
C    -0.8475893   -0.7609473    5.8123175 
C    -0.1305486   -2.7939454   -3.0174905 
C     4.4404024    1.7700904   -3.3440494 
C    -2.4354126    3.6192524    2.7661651 
C    -2.9310391   -1.6053401    4.8971629 
C    -0.4863237   -2.2965396   -4.2799465 
C     5.1457055    2.5777486   -2.4411461 
C    -1.3697114    4.5329804    2.7081833 
C    -2.1003258   -1.3653392    6.0001823 
C    -4.4008367    3.7192185   -0.4170131 
C    -3.7034070    0.0507100   -3.8740872 
C    -1.0474481    6.6370065   -1.0809496 
C    -3.9515052   -4.0080908   -1.9513297 
H     1.4871551    3.5518332   -1.4116575 
H    -2.0186314   -2.5383221    1.2382562 
H     0.2405495    1.0156784   -3.8034211 
H     3.1525987    2.1810382    0.3105765 
H     1.1394668    2.3876188    1.8023976 
H     0.5565951    0.0520614    4.3783523 
H     0.6430729   -2.2991910   -1.0489485 
H     2.7184067    0.4984256   -3.6627895 
H    -3.0535172    1.5582280    2.5197797 
H    -3.1986808   -1.4007981    2.7615589 
H    -0.6321196   -0.5376162   -5.5435192 
H     5.2361006    3.3422322   -0.4100140 
H     0.7482917    4.8021922    2.3188967 
H    -0.1945676   -0.5670919    6.6695582 
H    -0.2706607   -3.8538386   -2.7811701 
H     4.8154860    1.6281616   -4.3626624 
H    -3.4380645    3.9617899    3.0424414 
H    -3.9119893   -2.0705825    5.0388877 
H    -0.8912999   -2.9721850   -5.0406740 
H     6.0665149    3.0788638   -2.7569252 
H    -1.5430601    5.5900875    2.9352061 
H    -2.4294013   -1.6452571    7.0062181 
H    -4.0839513    4.4108544    0.3816014 
H    -5.3920454    3.2980853   -0.1971302 
H    -4.4136986    4.2623657   -1.3769576 
H    -4.7116017   -0.2206963   -3.5184087 
H    -3.2219606   -0.8417154   -4.3072119 
H    -3.7595292    0.8607753   -4.6148746 
H    -1.5297461    6.5969979   -0.0892112 
H    -0.4805350    7.5710999   -1.1991305 
H    -1.8247255    6.5538719   -1.8594738 
H    -3.3165544   -3.8837935   -2.8454111 
H    -4.1687684   -5.0709661   -1.7750102 
H    -4.8859870   -3.4401539   -2.0964053 
