109
Energy =
C    -2.2425920   -2.8485703   -1.4273495 
C    -1.3542467   -2.6577291   -2.5095793 
C     0.0422095   -2.9132765   -2.3797341 
H    -1.7237639   -2.1508119   -3.4102560 
Pd   -0.5784554   -1.3823698   -0.8725855 
P     1.5853550   -0.7230730   -0.2529304 
P    -1.6548796    0.2041323    0.4796729 
H    -1.8958130   -3.4740800   -0.5887768 
H     0.3483867   -3.7099580   -1.6874474 
C    -6.4902814   -2.2190261   -1.5124987 
C    -5.8081214   -2.3209848   -0.2894990 
C    -4.4264510   -2.5296142   -0.2733242 
C    -3.6947457   -2.6228876   -1.4797431 
C    -4.3948191   -2.5209038   -2.7040559 
C    -5.7800307   -2.3267466   -2.7181409 
H    -7.5737701   -2.0629117   -1.5252678 
H    -6.3562651   -2.2336378    0.6537342 
H    -3.8947759   -2.5985072    0.6827380 
H    -3.8585648   -2.6265135   -3.6526541 
H    -6.3098612   -2.2658263   -3.6743671 
C     2.9763324   -1.9620277   -5.3834923 
C     1.7726492   -1.2381701   -5.3321314 
C     0.8114234   -1.5393643   -4.3636484 
C     1.0304364   -2.5726882   -3.4217537 
C     2.2445055   -3.2909490   -3.4860447 
C     3.2062968   -2.9897329   -4.4581974 
H     3.7291102   -1.7232841   -6.1417974 
H     1.5876987   -0.4310526   -6.0486940 
H    -0.1135019   -0.9527897   -4.3262505 
H     2.4336779   -4.0903612   -2.7616166 
H     4.1408376   -3.5593798   -4.4882677 
O     2.3407757    3.3885305    1.3561642 
O     0.6152230    2.4796288    3.6826893 
O    -0.8300713    4.8346332   -1.6783918 
O     2.6762961   -1.5139556    4.7601444 
N     0.7513887    4.1308153   -0.1432873 
N     1.6612403    0.4964964    4.2294757 
C     0.4949591    1.9772853    0.9695227 
C     1.0953587    1.0006185    1.9137980 
C    -0.7400744    1.8011148    0.2997558 
C     1.6762377   -0.2301307    1.5254119 
C     1.1757321    3.1969381    0.7083631 
C     1.1496937    1.3038305    3.2995975 
C    -1.2015643    2.7775447   -0.5946662 
C     2.2262081   -1.0857633    2.4900415 
C    -1.7123100   -0.1245867    2.2794499 
C    -3.3708872    0.6029835   -0.0367749 
C     2.2825937    0.7013386   -1.1635513 
C     2.7825596   -2.1089949   -0.4014207 
C    -0.3982715    3.9193820   -0.7901435 
C     2.1749456   -0.6722770    3.8368143 
C    -2.0344939    0.8944798    3.2014204 
C    -3.6446184    0.6153519   -1.4214958 
C     3.4863592    1.3099289   -0.7491554 
C     4.0262315   -1.9845094   -1.0471241 
C    -1.4309040   -1.4243626    2.7448954 
C    -4.4068149    0.8895693    0.8735602 
C     1.5904206    1.2033809   -2.2823062 
C     2.4021411   -3.3617486    0.1305410 
C    -2.0916788    0.6027088    4.5696376 
C    -4.9214061    0.9480367   -1.8879165 
C     3.9968810    2.3976624   -1.4683015 
C     4.8859859   -3.0902797   -1.1349416 
C    -1.4734795   -1.7056850    4.1173924 
C    -5.6858733    1.2139208    0.4012312 
C     2.0993525    2.3010212   -2.9877145 
C     3.2660941   -4.4604080    0.0463740 
C    -1.8081226   -0.6934870    5.0289458 
C    -5.9440151    1.2505041   -0.9763463 
C     3.3042927    2.8949449   -2.5840689 
C     4.5133052   -4.3247977   -0.5861941 
C     3.0221379    4.6344324    1.1391547 
C     0.7146794    2.8303673    5.0723050 
C    -0.0139594    6.0019673   -1.8772068 
C     2.6264319   -1.0961652    6.1352849 
H    -2.1490794    2.6934352   -1.1297215 
H     2.6990145   -2.0377692    2.2450620 
H    -2.2078009    1.9172748    2.8518433 
H    -2.8521950    0.3525508   -2.1331860 
H     4.0076355    0.9479778    0.1430549 
H     4.3207291   -1.0334376   -1.4992137 
H    -1.1573207   -2.2069863    2.0273260 
H    -4.2244056    0.8509018    1.9509494 
H     0.6443070    0.7407963   -2.5808488 
H     1.4235433   -3.4741044    0.6137700 
H    -2.3461600    1.3943098    5.2819314 
H    -5.1230410    0.9519055   -2.9634375 
H     4.9329532    2.8671110   -1.1486104 
H     5.8492456   -2.9836285   -1.6442653 
H    -1.2384707   -2.7133796    4.4747071 
H    -6.4850724    1.4351603    1.1162225 
H     1.5498234    2.6967555   -3.8478351 
H     2.9650175   -5.4239698    0.4701908 
H    -1.8427791   -0.9128579    6.1011970 
H    -6.9454139    1.5013032   -1.3407750 
H     3.7034456    3.7522106   -3.1363517 
H     5.1878652   -5.1841899   -0.6570181 
H     3.2793579    4.7563392    0.0736998 
H     3.9309964    4.5772339    1.7548598 
H     2.3913579    5.4822868    1.4553872 
H     1.7716998    2.9013502    5.3797155 
H     0.2095439    2.0787506    5.7017212 
H     0.2200219    3.8081289    5.1594609 
H     0.9878415    5.7191550   -2.2436691 
H    -0.5461885    6.6024029   -2.6283455 
H     0.0971800    6.5677029   -0.9365619 
H     1.5827228   -0.9349578    6.4557272 
H     3.0834976   -1.9179692    6.7041848 
H     3.1931671   -0.1609628    6.2818235 
