109
Energy =
C     2.4247325   -1.3526988    2.7351698 
C     2.9400321   -2.0039880    1.5919211 
C     3.5025158   -1.2700085    0.5070646 
H     2.7541734   -3.0788960    1.4705455 
Pd    1.3904538   -0.6124515    0.8351076 
P     1.1766378    0.6022193   -1.1601365 
P    -0.8363668   -0.2838934    1.4967108 
H     2.7329383   -0.3087988    2.9084853 
H     4.0064037   -0.3226982    0.7442857 
C     0.7165800   -3.2752732    6.1748188 
C     0.5113803   -1.9050158    5.9474633 
C     1.0747478   -1.2888109    4.8269137 
C     1.8409285   -2.0333590    3.9005771 
C     2.0416909   -3.4118653    4.1433099 
C     1.4888538   -4.0237328    5.2731693 
H     0.2808483   -3.7566709    7.0562155 
H    -0.0933068   -1.3172937    6.6451851 
H     0.9041801   -0.2212173    4.6461520 
H     2.6612300   -4.0041058    3.4621384 
H     1.6664361   -5.0887044    5.4552563 
C     4.6899912   -3.0114330   -3.2473179 
C     3.7033268   -3.6408650   -2.4689868 
C     3.3119671   -3.0872448   -1.2471103 
C     3.8978009   -1.8891967   -0.7731149 
C     4.8881564   -1.2690148   -1.5659597 
C     5.2811561   -1.8256676   -2.7893182 
H     4.9937404   -3.4455198   -4.2054198 
H     3.2337586   -4.5649188   -2.8220697 
H     2.5281604   -3.5812826   -0.6618631 
H     5.3491311   -0.3385873   -1.2175638 
H     6.0501362   -1.3264522   -3.3878493 
O    -3.4664222    2.7878266   -0.5664955 
O    -2.8356950    1.1710753   -3.0601503 
O     0.1628338    5.6470722   -0.4719961 
O    -3.7672054   -3.1368997   -1.6720148 
N    -1.6623412    4.2266549   -0.5366940 
N    -3.3273999   -0.9739130   -2.3653117 
C    -1.3322609    1.8338208   -0.8547221 
C    -1.9731134    0.4993473   -0.9736459 
C     0.0599279    2.0616570   -0.9680638 
C    -1.8987816   -0.5239551    0.0021836 
C    -2.1372211    2.9867920   -0.6600311 
C    -2.7375688    0.1989776   -2.1332247 
C     0.5738893    3.3604079   -0.8490385 
C    -2.5191463   -1.7605912   -0.2259326 
C     0.4973451   -0.3154921   -2.5886874 
C     2.7814450    1.3261452   -1.6857516 
C    -1.2847400    1.3641178    2.1549144 
C    -1.4613375   -1.5181732    2.7035277 
C    -0.3413240    4.4072662   -0.6167874 
C    -3.2072796   -1.9338322   -1.4439277 
C     0.1407457    0.3532936   -3.7790030 
C     3.5533441    1.9871598   -0.7037787 
C    -2.6329115    1.7665100    2.2680339 
C    -1.0002928   -2.8457844    2.5712504 
C     0.3143073   -1.7077587   -2.4834435 
C     3.2816511    1.2173522   -2.9961841 
C    -0.2577432    2.2403594    2.5581122 
C    -2.3618563   -1.2009756    3.7391229 
C    -0.3726813   -0.3771641   -4.8578434 
C     4.7882549    2.5569785   -1.0366701 
C    -2.9414036    3.0255325    2.7971916 
C    -1.4633397   -3.8453919    3.4342526 
C    -0.2138765   -2.4295923   -3.5612417 
C     4.5228705    1.7846138   -3.3235831 
C    -0.5730037    3.5057975    3.0719066 
C    -2.8159912   -2.2044537    4.6057872 
C    -0.5526825   -1.7656605   -4.7495380 
C     5.2745475    2.4578877   -2.3510896 
C    -1.9144983    3.8963940    3.1952622 
C    -2.3746480   -3.5262728    4.4520313 
C    -4.3013906    3.9490107   -0.4304216 
C    -3.6396152    0.9015583   -4.2198767 
C    -0.7674750    6.7181621   -0.2371103 
C    -4.4706623   -3.3158954   -2.9134986 
H     1.6352214    3.5941425   -0.9422929 
H    -2.4979683   -2.5785694    0.4962726 
H     0.2443251    1.4408914   -3.8517076 
H     3.1819292    2.0552314    0.3263595 
H    -3.4339422    1.1097508    1.9140888 
H    -0.2675788   -3.0903873    1.7923210 
H     0.5701089   -2.2143622   -1.5473227 
H     2.7166483    0.6756214   -3.7597098 
H     0.7888056    1.9326452    2.4469691 
H    -2.7036034   -0.1720492    3.8804674 
H    -0.6450755    0.1418064   -5.7826603 
H     5.3737394    3.0748288   -0.2700373 
H    -3.9882648    3.3331311    2.8875007 
H    -1.0972530   -4.8707036    3.3241691 
H    -0.3675771   -3.5095694   -3.4692171 
H     4.9050533    1.6896221   -4.3451366 
H     0.2292456    4.1887134    3.3693137 
H    -3.5158994   -1.9485153    5.4079771 
H    -0.9642140   -2.3298711   -5.5930694 
H     6.2421484    2.8987958   -2.6117205 
H    -2.1613298    4.8844073    3.5976563 
H    -2.7294195   -4.3063499    5.1332927 
H    -4.0414555    4.5119925    0.4815667 
H    -5.3280833    3.5610084   -0.3698416 
H    -4.1883572    4.6127939   -1.3042244 
H    -4.6843229    0.6988745   -3.9296385 
H    -3.2456742    0.0324350   -4.7726925 
H    -3.5777790    1.8126157   -4.8318596 
H    -1.3327419    6.5458213    0.6949442 
H    -0.1506777    7.6240224   -0.1540928 
H    -1.4799558    6.8094803   -1.0745956 
H    -3.7921624   -3.1652774   -3.7707763 
H    -4.8410047   -4.3504179   -2.8894549 
H    -5.3105531   -2.6050779   -2.9944475 
