109
Energy =
C     1.9287873   -2.2550916    2.3959584 
C     2.6227403   -2.4032587    1.1557119 
C     3.4771133   -1.3922222    0.6609656 
H     2.3749198   -3.2542389    0.5081637 
Pd    1.3569035   -0.6113759    0.9986174 
P     1.0963849    0.6168371   -1.0003559 
P    -0.7272127    0.0152297    1.8478032 
H     2.4219116   -1.6777295    3.1917256 
H     3.8878665   -0.6789873    1.3930576 
C    -1.1196518   -4.9986000    3.7116544 
C    -0.9009712   -4.8017994    2.3380159 
C     0.0953158   -3.9207904    1.9057940 
C     0.8960700   -3.2147820    2.8348435 
C     0.6658821   -3.4280844    4.2111371 
C    -0.3307202   -4.3105046    4.6448195 
H    -1.9049402   -5.6815799    4.0512669 
H    -1.5233486   -5.3179340    1.5993329 
H     0.2266571   -3.7508126    0.8314961 
H     1.2755955   -2.8931423    4.9462044 
H    -0.4967633   -4.4545022    5.7170556 
C     5.6407016   -1.4606620   -3.0529592 
C     6.0537808   -0.6381144   -1.9948208 
C     5.3294406   -0.6178661   -0.7979005 
C     4.1851717   -1.4297603   -0.6285538 
C     3.7781071   -2.2504876   -1.7061684 
C     4.4969299   -2.2628759   -2.9047210 
H     6.2041299   -1.4750311   -3.9916318 
H     6.9398612   -0.0048910   -2.1032611 
H     5.6537472    0.0302090    0.0230954 
H     2.8874742   -2.8781461   -1.6144517 
H     4.1637711   -2.9024556   -3.7285918 
O    -3.6432257    2.5749111   -0.4339140 
O    -3.0166056    0.6017881   -2.7579181 
O    -0.3925704    5.6706010   -1.1617471 
O    -3.3160151   -3.5700358   -0.7878290 
N    -1.9635709    4.1010125   -0.8315247 
N    -3.2226089   -1.4690007   -1.7592605 
C    -1.4811578    1.7131256   -0.7732115 
C    -2.0266432    0.3374847   -0.6379773 
C    -0.1250769    2.0032152   -1.0203404 
C    -1.8231727   -0.5159447    0.4724578 
C    -2.3508886    2.8395465   -0.6986682 
C    -2.7783720   -0.2122854   -1.7134484 
C     0.3007571    3.3362913   -1.1734647 
C    -2.2643526   -1.8494994    0.4263575 
C     0.4623713   -0.4975183   -2.3150975 
C     2.6488756    1.3892866   -1.6004492 
C    -1.0370980    1.7993903    2.1626996 
C    -1.3373553   -0.6964139    3.4279210 
C    -0.6695990    4.3525593   -1.0616904 
C    -2.9430074   -2.2749534   -0.7308520 
C     0.0644955    0.0153000   -3.5676899 
C     3.3734113    2.1648324   -0.6682060 
C     0.0230874    2.7235505    2.1391245 
C    -0.5027287   -0.4709964    4.5435931 
C     0.3187596   -1.8735265   -2.0501362 
C     3.1307843    1.2611762   -2.9153599 
C    -2.3349166    2.2273016    2.5125151 
C    -2.5941098   -1.3014479    3.6162375 
C    -0.4308838   -0.8517767   -4.5503090 
C     4.5318158    2.8461388   -1.0617188 
C    -0.2155582    4.0731813    2.4340000 
C    -0.9187591   -0.8413487    5.8268117 
C    -0.1918837   -2.7339752   -3.0297903 
C     4.3018047    1.9313522   -3.2993850 
C    -2.5661354    3.5757681    2.8051160 
C    -2.9959257   -1.6918123    4.9028869 
C    -0.5586048   -2.2245061   -4.2842796 
C     4.9940027    2.7350096   -2.3827316 
C    -1.5101206    4.5008188    2.7603446 
C    -2.1650194   -1.4610402    6.0077511 
C    -4.5423463    3.6965541   -0.3632392 
C    -3.8085033    0.0827403   -3.8388632 
C     0.9586179    6.0746442   -1.3854071 
C    -4.0079017   -4.0074815   -1.9709362 
H     1.3478310    3.5666299   -1.3703744 
H    -2.0773889   -2.5613300    1.2309151 
H     0.1208846    1.0909648   -3.7642430 
H     3.0234104    2.2345411    0.3689990 
H     1.0305764    2.3832802    1.8733179 
H     0.4739169    0.0082986    4.4028462 
H     0.5811858   -2.2551745   -1.0570450 
H     2.6056771    0.6297240   -3.6373342 
H    -3.1612340    1.5098189    2.5426713 
H    -3.2703956   -1.4566224    2.7713400 
H    -0.7335245   -0.4507343   -5.5231367 
H     5.0801526    3.4544544   -0.3347849 
H     0.6094057    4.7923733    2.4014506 
H    -0.2660153   -0.6540951    6.6857246 
H    -0.3172912   -3.7986778   -2.8072532 
H     4.6755309    1.8183036   -4.3221139 
H    -3.5754645    3.9079079    3.0690135 
H    -3.9721377   -2.1684091    5.0394610 
H    -0.9573330   -2.8952071   -5.0526150 
H     5.9034064    3.2608724   -2.6914013 
H    -1.6977038    5.5561289    2.9821170 
H    -2.4892069   -1.7596156    7.0099977 
H    -4.2269168    4.3949612    0.4295228 
H    -5.5264704    3.2624875   -0.1368846 
H    -4.5636669    4.2370932   -1.3240830 
H    -4.8122327   -0.2029961   -3.4819746 
H    -3.3212911   -0.7985506   -4.2881263 
H    -3.8758401    0.9038060   -4.5664032 
H     1.3435941    5.6816555   -2.3452331 
H     0.9407353    7.1730695   -1.4200631 
H     1.6184009    5.7410772   -0.5616907 
H    -3.3777591   -3.8652849   -2.8657621 
H    -4.2142267   -5.0746217   -1.8077897 
H    -4.9483305   -3.4466957   -2.1047392 
