101
Energy =
C    -0.1971602   -0.9019391    3.3478728 
C    -0.5739422   -2.1564073    2.8194354 
C     0.2688832   -2.8639331    1.9151309 
H    -1.5824881   -2.5361932    3.0203046 
Pd   -0.3000390   -0.8511135    1.0483110 
P     0.6692098   -1.1585419   -1.0934674 
P    -0.7426249    1.4056983    0.6595910 
H     0.8681548   -0.6322138    3.2748711 
H     1.3484186   -2.6721900    1.9850410 
C    -2.2456960    1.4166491    6.3261426 
C    -0.9861788    1.8094587    5.8492008 
C    -0.3452137    1.0508874    4.8653153 
C    -0.9477704   -0.1132813    4.3324078 
C    -2.2251932   -0.4867257    4.8132051 
C    -2.8617341    0.2671209    5.8032782 
H    -2.7479754    2.0040100    7.1014734 
H    -0.5034943    2.7081981    6.2452004 
H     0.6434093    1.3536466    4.5024479 
H    -2.7209439   -1.3814117    4.4230604 
H    -3.8438498   -0.0441264    6.1739605 
C    -0.6416283   -6.7088450    0.2141386 
C    -1.6639962   -5.9602810    0.8190754 
C    -1.3917690   -4.6968334    1.3524420 
C    -0.0834233   -4.1594228    1.3104016 
C     0.9311365   -4.9201051    0.6848552 
C     0.6556856   -6.1791905    0.1422727 
H    -0.8569120   -7.6974817   -0.2039078 
H    -2.6804391   -6.3641057    0.8733381 
H    -2.2075335   -4.1267571    1.8092011 
H     1.9467652   -4.5125997    0.6285953 
H     1.4562446   -6.7499321   -0.3387340 
O     3.3249481    2.3648870   -2.5947350 
O     0.2365906    3.6042877   -3.3638175 
O     4.7814979    2.9948821   -0.8999186 
O    -1.0229113    2.8582305   -5.1667031 
C     1.3560022    1.9513869   -1.1614631 
C     0.5481944    1.4057181   -2.2889737 
C     0.9162268    2.0347200    0.1986436 
C     0.2157357    0.0170824   -2.4373042 
C     2.6685390    2.3562660   -1.3956165 
C     0.0971811    2.2460159   -3.2997493 
C     3.5492200    2.7351114   -0.3722581 
C    -0.6642367    1.7959740   -4.3894169 
C    -1.9129223    1.8411320   -0.6941897 
C    -1.4160237    2.4852856    1.9841017 
C     2.4967905   -0.9517138   -0.9834347 
C     0.3530247   -2.8025302   -1.8392661 
C     1.8151222    2.3964724    1.2230377 
C    -0.5178552   -0.4277823   -3.5518509 
C     3.1535408    2.7544050    0.9584203 
C    -0.9753275    0.4544530   -4.5537219 
C    -2.9952753    3.5303921   -2.0679934 
C    -1.6140790    4.5732619    3.2181949 
C    -3.6311444    1.1942124   -2.2886295 
C    -3.2924525    2.8400603    3.4970986 
C     4.6532915   -0.6367980   -2.0733039 
C     0.9842449   -4.7533159   -3.1486770 
C     4.5190151   -0.6821608    0.3517070 
C    -1.2976334   -4.5222147   -2.3478620 
C    -2.0694190    3.1897997   -1.0753094 
C    -0.9261329    3.7682799    2.2976344 
C    -2.7051477    0.8466370   -1.2942402 
C    -2.6032213    2.0262203    2.5925619 
C     3.2661444   -0.8128851   -2.1588268 
C     1.3281376   -3.5384437   -2.5395748 
C     3.1339176   -0.8787232    0.2703340 
C    -0.9577034   -3.3134941   -1.7295723 
C    -3.7740637    2.5333844   -2.6789296 
C    -2.7956636    4.1134651    3.8162470 
C     5.2815493   -0.5665470   -0.8198215 
C    -0.3274100   -5.2415316   -3.0621978 
C     4.6385348    2.8909655   -2.3280758 
C    -0.3819684    4.0143916   -4.5978258 
H     1.4710102    2.3995145    2.2618668 
H    -0.7501029   -1.4911045   -3.6523804 
H     3.8469443    3.0257110    1.7577132 
H    -1.5574378    0.1016650   -5.4079541 
H    -1.4614867    3.9687132   -0.6035514 
H    -0.0229182    4.1520162    1.8138354 
H    -2.5799289   -0.1996741   -0.9928571 
H    -2.9905467    1.0311407    2.3455581 
H     2.7756793   -0.8147937   -3.1378464 
H     2.3559709   -3.1711553   -2.6078342 
H     2.5343219   -0.9382794    1.1846825 
H    -1.7081142   -2.7618302   -1.1508693 
H     4.7332273    3.8948184   -2.7849108 
H     5.3980965    2.1942680   -2.7207287 
H     0.3931718    4.3880522   -5.2939012 
H    -1.1409020    4.7871279   -4.3874829 
H     1.7473895   -5.3211979   -3.6909097 
H    -0.5911774   -6.1914738   -3.5382437 
H     5.2430777   -0.5404390   -2.9911534 
H     5.0014954   -0.6092864    1.3315773 
H     6.3635300   -0.4119619   -0.7557796 
H    -2.3155434   -4.9127725   -2.2547268 
H    -3.1142433    4.5785989   -2.3625346 
H    -4.2378512    0.4158796   -2.7624328 
H    -4.4950918    2.8024501   -3.4575612 
H    -1.2286580    5.5700692    3.4570503 
H    -4.2128251    2.4749179    3.9625386 
H    -3.3318472    4.7477482    4.5296528 
