101
Energy =
C    -1.0178561   -1.2390927    3.2204526 
C    -1.8890351   -1.9079881    2.3064259 
C    -1.4324277   -2.9670318    1.4902133 
H    -2.8933217   -1.4997142    2.1343381 
Pd   -0.2362092   -1.0461427    1.1396622 
P    -0.1166025   -1.1241791   -1.2181684 
P     1.0505216    0.8921669    1.3031538 
H    -0.2126317   -1.8295218    3.6817662 
H    -0.5309000   -3.5050262    1.8234722 
C    -2.1680387    2.3101535    5.3748770 
C    -2.7397152    2.0357295    4.1212723 
C    -2.3739368    0.8835873    3.4180222 
C    -1.4334707   -0.0274819    3.9550907 
C    -0.8753406    0.2592229    5.2193998 
C    -1.2358207    1.4162730    5.9203471 
H    -2.4486091    3.2160900    5.9216792 
H    -3.4683945    2.7288715    3.6870896 
H    -2.8028649    0.7025141    2.4260371 
H    -0.1495398   -0.4351997    5.6543285 
H    -0.7827638    1.6219767    6.8952484 
C    -3.7559986   -5.1513208   -1.3931985 
C    -2.6117051   -5.7179051   -0.8131910 
C    -1.8584963   -4.9869254    0.1121423 
C    -2.2417920   -3.6799649    0.4887548 
C    -3.3964836   -3.1208563   -0.1066396 
C    -4.1419841   -3.8476650   -1.0391362 
H    -4.3438112   -5.7200644   -2.1210715 
H    -2.2996628   -6.7306231   -1.0869845 
H    -0.9622824   -5.4322038    0.5566474 
H    -3.7110112   -2.1057467    0.1504755 
H    -5.0297575   -3.3951190   -1.4928739 
O    -0.5014578    2.9635529   -3.3059201 
O     2.8133455    3.1014471   -2.4239489 
O    -2.2508148    4.1884491   -2.3922484 
O     4.4359966    1.9123783   -3.5850624 
C     0.3464246    2.0205210   -1.1879625 
C     1.3574443    1.1815512   -1.8956114 
C     0.1222808    2.0484617    0.2285712 
C     1.2513865   -0.2389495   -2.0732300 
C    -0.5019576    2.8241890   -1.9459749 
C     2.4640353    1.7813989   -2.4849421 
C    -1.5589763    3.5635248   -1.3954314 
C     3.4441763    1.0638559   -3.1879539 
C     1.3518215    1.6705478    2.9424157 
C     2.7830281    0.8455080    0.6807102 
C    -0.0216372   -2.8364899   -1.8696986 
C    -1.6127971   -0.3239201   -1.9295551 
C    -0.9539342    2.7802029    0.7706049 
C     2.2202968   -0.9430967   -2.8103014 
C    -1.8167840    3.5563131   -0.0316711 
C     3.3403422   -0.3049597   -3.3851600 
C     1.5664821    3.5332618    4.4929063 
C     4.7282385   -0.3994444   -0.0797288 
C     2.3755845    1.3360128    5.1313326 
C     4.8469256    2.0177929    0.1544900 
C     1.1436442   -4.9790924   -1.7925935 
C    -2.8362669    0.5587347   -3.8404067 
C    -0.6894886   -4.6461590   -3.3498575 
C    -3.7423247    0.8139368   -1.5991196 
C     1.1678128    3.0328371    3.2438603 
C     3.3967134   -0.3775039    0.3591812 
C     1.9575308    0.8264223    3.8973685 
C     3.5171032    2.0458827    0.5899301 
C     0.9654258   -3.6770506   -1.3095201 
C    -1.7122358   -0.0950612   -3.3177119 
C    -0.8609757   -3.3348659   -2.8820121 
C    -2.6297228    0.1437173   -1.0752238 
C     2.1723915    2.6909940    5.4352103 
C     5.4522326    0.7968753   -0.1866798 
C     0.3184964   -5.4634256   -2.8199379 
C    -3.8506221    1.0154299   -2.9835397 
C    -1.5519059    3.8971449   -3.6168933 
C     4.0246454    3.2341589   -3.1911536 
H    -1.1454957    2.7360300    1.8457204 
H     2.1132110   -2.0221910   -2.9469104 
H    -2.6520445    4.1150559    0.3968732 
H     4.0939703   -0.8620440   -3.9462725 
H     0.7334202    3.7131252    2.5061579 
H     2.8214274   -1.3073458    0.4348396 
H     2.1106765   -0.2342600    3.6635289 
H     3.0451574    2.9995209    0.8489311 
H     1.5973880   -3.3044993   -0.4940505 
H    -0.9014070   -0.4072261   -3.9843903 
H    -1.6579979   -2.7115162   -3.2964931 
H    -2.5193098    0.0122367    0.0072956 
H    -2.2513185    3.4338268   -4.3340062 
H    -1.1113184    4.8275001   -4.0223385 
H     4.8085474    3.6890106   -2.5615518 
H     3.8262993    3.8443224   -4.0927446 
H    -2.9125219    0.7239830   -4.9204516 
H    -4.7198236    1.5401346   -3.3934710 
H     1.9206750   -5.6189293   -1.3615133 
H    -1.3540466   -5.0299102   -4.1305597 
H     0.4516630   -6.4834143   -3.1949245 
H    -4.5187844    1.1907128   -0.9256532 
H     1.4127903    4.5929876    4.7216009 
H     2.8520756    0.6727335    5.8606720 
H     2.4901779    3.0901695    6.4039072 
H     5.1987462   -1.3519898   -0.3434766 
H     5.4151419    2.9515227    0.0847626 
H     6.4907393    0.7785569   -0.5326453 
