101
Energy =
C     1.8604395   -2.0770957   -2.0439305 
C     1.2768766   -3.1161940   -1.2635119 
C    -0.1242284   -3.2676214   -1.1705648 
H     1.9215659   -3.7384796   -0.6320266 
Pd    0.5523222   -1.1982668   -0.4188993 
P    -1.1555737   -0.6734817    1.0799202 
P     1.0970033    1.0793233   -0.7879882 
H     1.2757885   -1.7046041   -2.8962494 
H    -0.7308388   -2.7551593   -1.9335672 
C     6.0904054   -1.4441584   -2.5073888 
C     5.6233905   -2.2662330   -1.4692769 
C     4.2508645   -2.4611482   -1.2872124 
C     3.3116287   -1.8521871   -2.1529686 
C     3.7982971   -1.0157612   -3.1839420 
C     5.1708741   -0.8131752   -3.3589263 
H     7.1654532   -1.2921020   -2.6477100 
H     6.3345550   -2.7567100   -0.7963334 
H     3.9098731   -3.0974057   -0.4638405 
H     3.0848206   -0.5229252   -3.8539255 
H     5.5249415   -0.1601855   -4.1628289 
C    -2.3048550   -6.4120803    0.7783215 
C    -0.9089626   -6.3475361    0.9251483 
C    -0.1824455   -5.3168587    0.3221833 
C    -0.8375048   -4.3322156   -0.4547988 
C    -2.2442810   -4.4093254   -0.5870563 
C    -2.9714104   -5.4351192    0.0237659 
H    -2.8697600   -7.2211457    1.2523639 
H    -0.3845227   -7.1093334    1.5112434 
H     0.9050217   -5.2885184    0.4447229 
H    -2.7659944   -3.6539380   -1.1853799 
H    -4.0593054   -5.4736930   -0.0884371 
O    -2.5488741    3.9770104   -1.0392025 
O    -2.2654451    3.7035340    2.3485555 
O    -4.1456105    3.0693208   -2.4594232 
O    -0.6090688    4.7709863    3.5775466 
C    -1.8764979    1.8631630    0.0481328 
C    -0.7627862    2.5092821    0.7989149 
C    -2.1884614    0.4661478    0.0827401 
C     0.6269300    2.3133902    0.4969104 
C    -2.6516230    2.6318151   -0.8178550 
C    -1.0366835    3.3900827    1.8382448 
C    -3.6149308    2.0839846   -1.6771352 
C    -0.0363106    4.0351986    2.5816486 
C    -2.2477145   -1.9781047    1.7714510 
C    -0.7031418    0.1884008    2.6430989 
C     2.8820206    1.3980344   -1.0536939 
C     0.2036074    1.6959767   -2.2766459 
C    -3.1438750   -0.0783152   -0.7998872 
C     1.6198742    2.9918981    1.2263076 
C    -3.8780684    0.7208968   -1.7008569 
C     1.3087252    3.8690161    2.2871254 
C    -4.3771285   -2.8718000    2.5386684 
C    -1.3792280    1.2890005    4.7030696 
C    -2.3112777   -4.0181498    3.1018394 
C     0.9777826    0.9042816    4.2477060 
C     5.1576843    0.9905603   -0.2817274 
C    -0.5566402    3.5503565   -3.6624852 
C     4.7533308    2.5400592   -2.1084784 
C    -1.1845281    1.2749089   -4.2362154 
C    -3.6514564   -1.8894120    1.8480621 
C    -1.7183482    0.6785500    3.4902458 
C    -1.5830762   -3.0514512    2.4012698 
C     0.6442497    0.2914125    3.0311533 
C     3.7847762    0.7322244   -0.1975971 
C     0.1422868    3.0809300   -2.5428092 
C     3.3761321    2.2924430   -2.0225383 
C    -0.4693876    0.7993394   -3.1288603 
C    -3.7108841   -3.9332746    3.1668075 
C    -0.0314052    1.4066483    5.0815200 
C     5.6431917    1.8987710   -1.2348874 
C    -1.2248888    2.6503896   -4.5077272 
C    -3.5803721    4.3060296   -1.9883818 
C    -2.0327609    4.6608607    3.3987437 
H    -3.3259860   -1.1573129   -0.7932008 
H     2.6719131    2.8382193    0.9729227 
H    -4.6107748    0.2914959   -2.3879259 
H     2.0875824    4.3804186    2.8571400 
H    -4.1812049   -1.0488854    1.3896509 
H    -2.7694887    0.5914696    3.1965206 
H    -0.4905118   -3.1199418    2.3481800 
H     1.4286652   -0.0926146    2.3688300 
H     3.4057223    0.0054400    0.5306973 
H     0.6171756    3.7917554   -1.8585217 
H     2.6924019    2.7932941   -2.7137883 
H    -0.4626027   -0.2712123   -2.8992502 
H    -3.1353379    4.8504870   -2.8380259 
H    -4.3644033    4.9059101   -1.4874381 
H    -2.4920264    4.2969934    4.3336461 
H    -2.4457341    5.6437423    3.1016015 
H    -0.5899501    4.6259808   -3.8663301 
H    -1.7850921    3.0215350   -5.3720593 
H     5.8508205    0.4671139    0.3838269 
H     5.1311088    3.2362930   -2.8644350 
H     6.7180853    2.0939181   -1.3065108 
H    -1.7192485    0.5708426   -4.8817170 
H    -5.4682370   -2.7970296    2.5950298 
H    -1.7861292   -4.8457678    3.5880121 
H    -4.2812468   -4.6942098    3.7094142 
H    -2.1695699    1.6694808    5.3590296 
H     2.0286204    0.9936555    4.5411854 
H     0.2308916    1.8878671    6.0292553 
