101
Energy =
C     2.5875436   -1.8736353   -1.3791656 
C     1.7553844   -2.9693694   -1.0047001 
C     0.5003109   -3.1862569   -1.6163137 
H     2.0156579   -3.5603356   -0.1170419 
Pd    0.6086670   -1.1009649   -0.6797625 
P    -1.5341448   -0.7540472    0.2049652 
P     1.2183725    1.1605992   -0.5660032 
H     2.5395487   -1.5368568   -2.4239383 
H     0.3086794   -2.6820054   -2.5773298 
C     6.1999602   -0.7419007    0.6740427 
C     6.0063583   -0.4058162   -0.6731974 
C     4.8293584   -0.7825549   -1.3316839 
C     3.8207144   -1.5048991   -0.6568144 
C     4.0317193   -1.8394989    0.7021972 
C     5.2067518   -1.4631681    1.3585023 
H     7.1185720   -0.4455735    1.1907504 
H     6.7735282    0.1553045   -1.2167692 
H     4.6833296   -0.5131401   -2.3832205 
H     3.2600074   -2.3851445    1.2568915 
H     5.3492862   -1.7273675    2.4116385 
C    -2.2004354   -6.4116012   -0.7465515 
C    -2.6495467   -5.2684496   -1.4271186 
C    -1.7615220   -4.2270521   -1.7093476 
C    -0.4095102   -4.2981618   -1.3012448 
C     0.0298961   -5.4564883   -0.6198096 
C    -0.8572353   -6.5043781   -0.3510418 
H    -2.8944409   -7.2305362   -0.5315434 
H    -3.6969334   -5.1887665   -1.7345927 
H    -2.1177283   -3.3310567   -2.2306373 
H     1.0802024   -5.5540388   -0.3264015 
H    -0.4974896   -7.4014296    0.1635189 
O    -0.8249872    3.9459194    2.5483682 
O    -3.3680553    3.5799753    0.4443829 
O    -0.7312245    3.0872594    4.7047476 
O    -3.5259536    4.6242761   -1.6215076 
C    -1.2064674    1.8007772    1.3871125 
C    -1.2098115    2.4476860    0.0445099 
C    -1.4003246    0.4011931    1.6342009 
C    -0.1755643    2.3039387   -0.9377757 
C    -1.0292922    2.5941540    2.5170041 
C    -2.2581321    3.2935598   -0.3029390 
C    -0.9772619    2.0775117    3.8197987 
C    -2.3536586    3.9277430   -1.5505976 
C    -2.7847874   -0.0013240   -0.9041950 
C    -2.3100742   -2.2630723    0.9086429 
C     1.8536025    1.7372222    1.0520261 
C     2.4933985    1.5692742   -1.8255379 
C    -1.3721628   -0.1029517    2.9479054 
C    -0.2658251    2.9688046   -2.1746831 
C    -1.1515513    0.7242481    4.0699783 
C    -1.3639395    3.7883754   -2.5123058 
C    -4.8934409    1.1603985   -1.2615842 
C    -4.2206260   -3.6783218    1.4301267 
C    -3.4759086    0.6091974   -3.1584276 
C    -1.9950673   -4.3499872    2.1314530 
C     2.4838646    3.5312396    2.5682266 
C     3.2324642    1.3641646   -4.1442355 
C     2.5469596    1.2206838    3.3255809 
C     4.6016555    2.5595453   -2.5337004 
C    -3.9618460    0.5823279   -0.3899733 
C    -3.6936735   -2.5187507    0.8450954 
C    -2.5474334    0.0153343   -2.2923287 
C    -1.4627733   -3.1982026    1.5406869 
C     2.0323678    3.1123875    1.3100918 
C     2.2941956    1.0925630   -3.1408270 
C     2.1128878    0.7941926    2.0640489 
C     3.6604969    2.2956602   -1.5265042 
C    -4.6499108    1.1799001   -2.6441082 
C    -3.3761676   -4.5908895    2.0782973 
C     2.7345362    2.5881509    3.5781573 
C     4.3897823    2.1009917   -3.8410366 
C    -0.7135380    4.3048800    3.9381281 
C    -4.1145302    4.5517833   -0.3110260 
H    -1.5365012   -1.1704989    3.1169429 
H     0.5428594    2.8670278   -2.9024859 
H    -1.1243246    0.3204377    5.0846181 
H    -1.4288255    4.2915726   -3.4796904 
H    -4.1312094    0.6136114    0.6914824 
H    -4.3625548   -1.8224589    0.3317986 
H    -1.6192722   -0.4160153   -2.6857574 
H    -0.3800643   -3.0228796    1.5577583 
H     1.7955086    3.8517781    0.5376403 
H     1.3980401    0.5050212   -3.3766595 
H     1.9475936   -0.2689682    1.8627186 
H     3.8492187    2.6410130   -0.5062924 
H    -1.5751886    4.9366504    4.2259691 
H     0.2439667    4.8276676    4.1051720 
H    -4.0407633    5.5397676    0.1840455 
H    -5.1630722    4.2223446   -0.3981739 
H     3.0645640    0.9960897   -5.1616422 
H     5.1273257    2.3088518   -4.6229925 
H     2.6289275    4.5991236    2.7637268 
H     2.7327480    0.4851114    4.1146423 
H     3.0716402    2.9202894    4.5655570 
H     5.5095001    3.1202730   -2.2885169 
H    -5.8078414    1.6079083   -0.8579321 
H    -3.2795075    0.6333179   -4.2351196 
H    -5.3726828    1.6471094   -3.3208001 
H    -5.2972864   -3.8697009    1.3744663 
H    -1.3284731   -5.0704730    2.6152390 
H    -3.7914094   -5.4972004    2.5307307 
