101
Energy =
C     0.5719691   -1.4799319    3.0515519 
C    -0.5081605   -2.3179696    2.6887315 
C    -0.3965437   -3.2162209    1.5862743 
H    -1.4823287   -2.1927709    3.1776110 
Pd   -0.1356970   -1.1017442    0.9006966 
P     0.2762160    1.2284800    0.9203199 
P    -0.2062547   -1.2264365   -1.4396612 
H     1.5693796   -1.7897076    2.7052154 
H     0.6089879   -3.5912750    1.3441216 
C     0.7359007    1.2899908    6.3328530 
C     1.8876816    0.9845233    5.5934663 
C     1.8126076    0.0916496    4.5186798 
C     0.5852527   -0.5117710    4.1571321 
C    -0.5703892   -0.1800659    4.9028961 
C    -0.4921354    0.7048838    5.9810257 
H     0.7917114    1.9818466    7.1795559 
H     2.8492438    1.4356940    5.8589658 
H     2.7178259   -0.1513050    3.9531937 
H    -1.5382145   -0.6191333    4.6437505 
H    -1.3959375    0.9450504    6.5494819 
C    -3.6107131   -5.7878811    0.3313993 
C    -2.2792984   -6.2211837    0.2563517 
C    -1.2388071   -5.3716403    0.6541206 
C    -1.5116179   -4.0794667    1.1526502 
C    -2.8595176   -3.6539938    1.2223031 
C    -3.8965360   -4.4977665    0.8129845 
H    -4.4243544   -6.4481099    0.0139556 
H    -2.0475691   -7.2221200   -0.1219574 
H    -0.2000831   -5.7115410    0.5813491 
H    -3.0904462   -2.6393445    1.5669246 
H    -4.9335525   -4.1497637    0.8632433 
O     3.1581126    2.8010165   -2.2536876 
O     0.2971959    2.5437267   -4.1903217 
O     5.0598379    1.4675413   -2.2221296 
O    -1.4486222    4.0675770   -4.0309781 
C     1.5130875    0.9862489   -1.9435855 
C     0.3779657    1.9397177   -1.7991477 
C     1.4134062   -0.4363186   -1.8082162 
C    -0.2520445    2.2164700   -0.5406887 
C     2.7999780    1.4886190   -2.1234194 
C    -0.1002666    2.6570252   -2.8878920 
C     3.9486337    0.6847670   -2.1000590 
C    -1.1548874    3.5787420   -2.7917478 
C    -0.2602048   -2.8041241   -2.3902365 
C    -1.5163811   -0.2924092   -2.3330601 
C    -0.6497003    1.9922255    2.3093721 
C     2.0479281    1.6842021    1.0947922 
C     2.5775116   -1.2316919   -1.7562469 
C    -1.2839546    3.1672324   -0.4489110 
C     3.8707529   -0.6873696   -1.9041919 
C    -1.7585702    3.8701115   -1.5774348 
C     0.4264320   -4.2831197   -4.2016567 
C    -2.4810407    0.4991080   -4.4198046 
C    -1.5680557   -4.7931611   -2.9171021 
C    -3.6244163    0.9203222   -2.3159207 
C    -0.8976918    3.5108449    4.1915059 
C     4.3766055    1.0142373    1.3493604 
C    -2.8045443    2.2115551    3.4347853 
C     3.8125622    3.3626628    1.0733289 
C     0.6291999   -3.1247364   -3.4379780 
C    -1.4622045   -0.1753577   -3.7373255 
C    -1.3676738   -3.6424479   -2.1438285 
C    -2.6076620    0.2436136   -1.6272176 
C    -0.0957540    2.9314710    3.1972028 
C     3.0183632    0.6795407    1.2696540 
C    -2.0044367    1.6173797    2.4513803 
C     2.4549844    3.0297581    0.9745700 
C    -0.6678828   -5.1211479   -3.9412587 
C    -3.5598671    1.0527556   -3.7104707 
C    -2.2518983    3.1657092    4.3033132 
C     4.7743287    2.3567504    1.2613885 
C     4.5892863    2.8153000   -2.4095989 
C    -0.4813789    3.5003892   -4.9335738 
H     2.4848987   -2.3098038   -1.5925869 
H    -1.7421004    3.3743439    0.5213651 
H     4.7664585   -1.3107714   -1.8552001 
H    -2.5697354    4.5977644   -1.5017434 
H     1.4688819   -2.4659723   -3.6769073 
H    -0.6216251   -0.6038348   -4.2928981 
H    -2.0875010   -3.3868867   -1.3603037 
H    -2.6469983    0.1404910   -0.5371773 
H     0.9607898    3.2037776    3.1255617 
H     2.7071577   -0.3694549    1.3041814 
H    -2.4301081    0.8603639    1.7813438 
H     1.7119567    3.8114671    0.7839403 
H     5.0330571    3.4667317   -1.6370909 
H     4.8464621    3.1588765   -3.4293178 
H    -1.0065289    2.9850515   -5.7557566 
H     0.1817135    4.2998255   -5.3155408 
H     5.1261312    0.2250717    1.4666876 
H     5.8358906    2.6176021    1.3250113 
H    -0.4565709    4.2345095    4.8844500 
H    -3.8572440    1.9250684    3.5279236 
H    -2.8737310    3.6285381    5.0765587 
H     4.1207581    4.4103071    0.9900921 
H     1.1234021   -4.5232159   -5.0114776 
H    -2.4317714   -5.4328320   -2.7116011 
H    -0.8238274   -6.0227046   -4.5427532 
H    -2.4365596    0.5885422   -5.5105210 
H    -4.4659069    1.3479133   -1.7614628 
H    -4.3530033    1.5835190   -4.2469269 
