101
Energy =
C     2.4752827   -2.0011842   -1.6956794 
C     1.4636204   -2.9606616   -1.3954942 
C     0.1634213   -2.8343590   -1.9382618 
H     1.6662896   -3.7313099   -0.6412636 
Pd    0.7486727   -1.0200541   -0.6607938 
P    -1.4215189   -0.6161418    0.1910252 
P     1.5270223    1.1247194   -0.1219272 
H     2.4009886   -1.4793409   -2.6614050 
H     0.0689910   -2.2126836   -2.8412252 
C     6.4614041   -2.2208660   -0.0895303 
C     5.3679616   -2.6198835    0.6999751 
C     4.0686245   -2.5515298    0.1882015 
C     3.8328425   -2.0750536   -1.1233391 
C     4.9384750   -1.6644562   -1.8990023 
C     6.2412448   -1.7460884   -1.3903909 
H     7.4783500   -2.2780040    0.3120285 
H     5.5326658   -2.9808087    1.7205735 
H     3.2209656   -2.8369748    0.8218045 
H     4.7720932   -1.2806281   -2.9112969 
H     7.0861801   -1.4288615   -2.0101666 
C    -3.1562200   -5.5108444   -1.4074092 
C    -2.0104354   -5.6615389   -0.6081375 
C    -0.9299797   -4.7872748   -0.7494982 
C    -0.9658020   -3.7459187   -1.7065711 
C    -2.1295579   -3.6020645   -2.4978481 
C    -3.2142454   -4.4735769   -2.3494225 
H    -3.9995481   -6.1996774   -1.2933437 
H    -1.9622086   -6.4644070    0.1339899 
H    -0.0506480   -4.9199946   -0.1124620 
H    -2.1766818   -2.8018884   -3.2434197 
H    -4.1024063   -4.3476025   -2.9770905 
O    -1.1496832    4.3239241    2.0283841 
O    -3.1883284    3.5077180   -0.6552527 
O    -1.6964685    3.7729290    4.2174627 
O    -2.9204750    3.9514337   -2.9195420 
C    -1.3278803    2.0446268    1.0993910 
C    -0.9893611    2.4446787   -0.2948544 
C    -1.6221558    0.6911590    1.4719539 
C     0.2279868    2.1110114   -0.9720131 
C    -1.4234396    2.9878652    2.1142197 
C    -1.9468538    3.1057506   -1.0609761 
C    -1.7547867    2.6553106    3.4373743 
C    -1.7874221    3.3701538   -2.4287413 
C    -2.6549885   -0.1272124   -1.0801798 
C    -2.0344897   -2.1309717    1.0273030 
C     1.5674371    1.6304609    1.6471061 
C     3.1538120    1.7994759   -0.6631099 
C    -1.9877959    0.3740624    2.7921933 
C     0.3657446    2.3556329   -2.3546470 
C    -2.0607363    1.3536706    3.8059971 
C    -0.6392362    2.9936025   -3.1120930 
C    -3.2059766    0.3338897   -3.4081542 
C    -1.5603177   -3.8796891    2.6628152 
C    -4.8708029    0.6910718   -1.6732713 
C    -3.7296695   -3.7850388    1.5756327 
C     1.8993065    3.3496915    3.3340192 
C     4.6028232    3.5364753   -1.5696228 
C     1.4908719    1.0495079    4.0076353 
C     5.5761845    1.6064434   -0.4670768 
C    -2.2871027   -0.0884419   -2.4383740 
C    -1.1455544   -2.7652948    1.9236132 
C    -3.9486343    0.2869694   -0.6986959 
C    -3.3251941   -2.6582946    0.8447397 
C     1.8242304    2.9746148    1.9877597 
C     3.3163809    3.0353431   -1.3244107 
C     1.4164327    0.6677351    2.6604381 
C     4.2948808    1.0943757   -0.2264468 
C    -4.5016218    0.7145284   -3.0279717 
C    -2.8580562   -4.3871781    2.4938799 
C     1.7273027    2.3897981    4.3453882 
C     5.7339886    2.8231171   -1.1463918 
C    -1.4114014    4.8727991    3.3337583 
C    -3.8023631    4.1351382   -1.7963811 
H    -2.2218992   -0.6609050    3.0535531 
H     1.2791004    2.0395379   -2.8680926 
H    -2.3313890    1.0984757    4.8330172 
H    -0.5262776    3.1717006   -4.1839289 
H    -1.2651162   -0.3541218   -2.7268263 
H    -0.1270343   -2.3760053    2.0429957 
H    -4.2252746    0.3118300    0.3607690 
H    -4.0120690   -2.2026706    0.1262181 
H     1.9566155    3.7254360    1.2018794 
H     2.4456050    3.6212135   -1.6318826 
H     1.2268674   -0.3762145    2.3873709 
H     4.1839759    0.1532352    0.3207488 
H    -2.2897056    5.5443383    3.2832828 
H    -0.5154659    5.4074834    3.6923418 
H    -3.9306811    5.2162246   -1.5992130 
H    -4.7674484    3.6428898   -2.0068631 
H     4.7179696    4.4960489   -2.0845646 
H     6.7363183    3.2204361   -1.3371623 
H     2.0984325    4.3943750    3.5958738 
H     1.3602643    0.2991872    4.7940098 
H     1.7827822    2.6872445    5.3975248 
H     6.4504141    1.0460362   -0.1220027 
H    -2.9061233    0.3785459   -4.4600323 
H    -5.8770654    1.0007704   -1.3716219 
H    -5.2196153    1.0432708   -3.7865866 
H    -0.8687106   -4.3565034    3.3651742 
H    -4.7329884   -4.1947153    1.4210872 
H    -3.1839117   -5.2610290    3.0674532 
