101
Energy =
C     2.5309002   -2.0690466   -1.5300946 
C     1.4521780   -2.9866602   -1.3551788 
C     0.2181801   -2.7880030   -2.0165463 
H     1.5459939   -3.7816903   -0.6048224 
Pd    0.7627483   -1.0308822   -0.6384238 
P    -1.4523370   -0.5567487    0.0453254 
P     1.5766768    1.0653878    0.0239438 
H     2.5801769   -1.5283157   -2.4869869 
H     0.2373472   -2.1376265   -2.9040390 
C     6.3139550   -2.5116696    0.4735075 
C     6.2552885   -2.0255075   -0.8403953 
C     5.0183361   -1.8725329   -1.4802011 
C     3.8179609   -2.2212307   -0.8244772 
C     3.8909984   -2.7109950    0.5012253 
C     5.1249470   -2.8508999    1.1436839 
H     7.2793659   -2.6238413    0.9775813 
H     7.1757757   -1.7553451   -1.3680986 
H     4.9784590   -1.4801187   -2.5020502 
H     2.9677177   -2.9476519    1.0427485 
H     5.1636311   -3.2203911    2.1737349 
C    -3.2578837   -5.3102362   -1.8724179 
C    -3.1853990   -4.2394762   -2.7750634 
C    -2.0515680   -3.4198922   -2.7985194 
C    -0.9682061   -3.6494457   -1.9181400 
C    -1.0637270   -4.7247104   -1.0036137 
C    -2.1927627   -5.5472020   -0.9872934 
H    -4.1398041   -5.9588388   -1.8560638 
H    -4.0096243   -4.0467632   -3.4694569 
H    -1.9966527   -2.5935051   -3.5142973 
H    -0.2489367   -4.9251821   -0.3018593 
H    -2.2458906   -6.3775957   -0.2763935 
O    -1.1319782    4.3024162    2.0806104 
O    -2.9813279    3.6706694   -0.7782787 
O    -1.8702834    3.7007294    4.1989885 
O    -2.5225064    4.1734315   -2.9991381 
C    -1.3256876    2.0655539    1.0565799 
C    -0.8638353    2.4975891   -0.2919206 
C    -1.7017602    0.7137658    1.3543779 
C     0.3864174    2.1312187   -0.8872545 
C    -1.4632148    2.9767974    2.0955133 
C    -1.7307750    3.2258489   -1.1036842 
C    -1.9102989    2.6135879    3.3758849 
C    -1.4562519    3.5258809   -2.4456130 
C    -2.5562786    0.0275622   -1.3021063 
C    -2.1933956   -2.0706504    0.7730036 
C     1.5006732    1.5116200    1.8076402 
C     3.2649140    1.6894021   -0.3709498 
C    -2.1817892    0.3675059    2.6299433 
C     0.6391751    2.4121635   -2.2465369 
C    -2.2952013    1.3141426    3.6710707 
C    -0.2769828    3.1184208   -3.0542589 
C    -2.8953147    0.5790609   -3.6508129 
C    -3.9969377   -3.6627780    1.1238382 
C    -4.6769441    0.9677377   -2.0433907 
C    -1.9262659   -3.8967339    2.3706806 
C     1.7703593    3.1593165    3.5751109 
C     4.8449758    3.3887891   -1.1155271 
C     1.2173822    0.8584224    4.1332695 
C     5.6567391    1.3895376   -0.0058117 
C    -2.0783106    0.0860795   -2.6248670 
C    -3.4874232   -2.5306751    0.4710443 
C    -3.8564925    0.4921351   -1.0118363 
C    -1.4064156   -2.7771370    1.7098158 
C     1.7848220    2.8316415    2.2145392 
C     3.5250004    2.9354068   -0.9799652 
C     1.2324996    0.5239986    2.7716211 
C     4.3417179    0.9257470    0.1263936 
C    -4.1984337    1.0116217   -3.3629025 
C    -3.2274209   -4.3372326    2.0822215 
C     1.4811753    2.1756387    4.5355661 
C     5.9126602    2.6167374   -0.6345043 
C    -1.4706653    4.8166077    3.3824230 
C    -3.4770672    4.3644896   -1.9383698 
H    -2.4764926   -0.6649420    2.8335624 
H     1.5745389    2.0712698   -2.7010320 
H    -2.6555745    1.0356953    4.6639101 
H    -0.0757112    3.3240245   -4.1080566 
H    -1.0497803   -0.2213197   -2.8392974 
H    -4.0949433   -2.0178804   -0.2796429 
H    -4.2168104    0.4998012    0.0223827 
H    -0.3843677   -2.4401668    1.9224415 
H     2.0084127    3.6009804    1.4682311 
H     2.7034252    3.5656178   -1.3318038 
H     1.0225866   -0.5014997    2.4478984 
H     4.1532298   -0.0234253    0.6368448 
H    -2.3128589    5.5287857    3.2911066 
H    -0.5832811    5.2970816    3.8284657 
H    -3.5686374    5.4437403   -1.7124404 
H    -4.4455680    3.9280931   -2.2371614 
H     5.0357402    4.3568330   -1.5906022 
H     6.9414224    2.9763541   -0.7405284 
H     1.9913411    4.1852806    3.8884221 
H     0.9955867    0.0894573    4.8801779 
H     1.4667934    2.4361207    5.5988094 
H     6.4800171    0.7835198    0.3846360 
H    -2.5095928    0.6382790   -4.6736002 
H    -5.6891551    1.3168948   -1.8131326 
H    -4.8366273    1.3961767   -4.1652882 
H    -5.0019660   -4.0194740    0.8766682 
H    -1.3136734   -4.4296778    3.1052954 
H    -3.6351520   -5.2150706    2.5940081 
