101
Energy =
C    -0.5062734   -1.3529643    3.2947202 
C    -1.5869300   -1.8957494    2.5334464 
C    -1.3839834   -2.9343687    1.5972827 
H    -2.5664003   -1.4018397    2.5742637 
Pd   -0.1121763   -1.0927091    1.1142497 
P    -0.4407728   -1.0325256   -1.2236231 
P     1.3485047    0.7254478    1.1196754 
H     0.3165465   -2.0301774    3.5665901 
H    -0.4868620   -3.5598351    1.7275538 
C    -0.9207598    2.1355864    5.7887116 
C    -1.7406495    1.9814286    4.6583720 
C    -1.6143716    0.8498243    3.8463290 
C    -0.6706334   -0.1602826    4.1495648 
C     0.1390660    0.0064971    5.2936399 
C     0.0181257    1.1427808    6.1024552 
H    -1.0146258    3.0251106    6.4199094 
H    -2.4766001    2.7522923    4.4052755 
H    -2.2375004    0.7617965    2.9492973 
H     0.8719344   -0.7657004    5.5483793 
H     0.6636144    1.2543770    6.9793188 
C    -4.3846099   -4.7483580   -0.8905978 
C    -3.2074257   -5.4373544   -0.5646688 
C    -2.2344525   -4.8262379    0.2338879 
C    -2.4243364   -3.5190442    0.7359100 
C    -3.6150628   -2.8356055    0.3962660 
C    -4.5816511   -3.4429524   -0.4101382 
H    -5.1446358   -5.2231865   -1.5196108 
H    -3.0420995   -6.4524483   -0.9390758 
H    -1.3145401   -5.3669390    0.4796806 
H    -3.7854077   -1.8165379    0.7541686 
H    -5.4945923   -2.8952107   -0.6658173 
O    -0.8453387    3.1956113   -3.0066856 
O     2.5749286    3.0190266   -2.7678227 
O    -2.2799983    4.4922798   -1.7199234 
O     3.8414295    1.7822504   -4.2715227 
C     0.2955265    2.0587578   -1.1359015 
C     1.0788841    1.1893120   -2.0618613 
C     0.3422926    2.0153309    0.2971104 
C     0.8171100   -0.2049222   -2.2816325 
C    -0.6049142    2.9718740   -1.6796783 
C     2.1050294    1.7367280   -2.8228018 
C    -1.4720204    3.7548570   -0.9036844 
C     2.8699180    0.9903694   -3.7326126 
C     2.0184771    1.3735091    2.7055752 
C     2.9233763    0.5805599    0.1763599 
C    -0.6197347   -2.7031244   -1.9603256 
C    -1.9662707   -0.0752270   -1.5996856 
C    -0.5456598    2.7929908    1.0680602 
C     1.5661024   -0.9350137   -3.2218754 
C    -1.4713027    3.6821532    0.4823250 
C     2.6112002   -0.3513009   -3.9696703 
C     2.6799498    3.1121919    4.2736704 
C     4.9506551    1.6143989   -0.6793707 
C     3.4017618    0.8239283    4.6384175 
C     4.5731510   -0.7665281   -0.9966506 
C    -1.7068986   -4.3596734   -3.3694057 
C    -3.8889619    1.2018159   -0.8183806 
C     0.3480426   -4.9295352   -2.2079277 
C    -3.4407560    1.0159189   -3.2003409 
C     2.0124021    2.7237953    3.1018942 
C     3.7328656    1.7218355    0.0020849 
C     2.7174940    0.4269468    3.4846342 
C     3.3539299   -0.6653999   -0.3114905 
C    -1.6733172   -3.0711005   -2.8160091 
C    -2.7615206    0.4165063   -0.5469611 
C     0.3771317   -3.6505195   -1.6389323 
C    -2.3010786    0.2459393   -2.9315103 
C     3.3768432    2.1683317    5.0404090 
C     5.3694384    0.3724177   -1.1848726 
C    -0.6929794   -5.2835311   -3.0807905 
C    -4.2344689    1.4959092   -2.1461738 
C    -1.8485620    4.2259261   -3.0675156 
C     3.6275048    3.1051812   -3.7466604 
H    -0.5371375    2.6966860    2.1567975 
H     1.3411471   -1.9920534   -3.3851025 
H    -2.1600846    4.2755737    1.0880480 
H     3.1952025   -0.9293139   -4.6893617 
H     1.5072928    3.4802627    2.4950956 
H     3.4051927    2.6923809    0.3892981 
H     2.7323510   -0.6252323    3.1748679 
H     2.7211973   -1.5490488   -0.1698981 
H    -2.4764026   -2.3637766   -3.0404356 
H    -2.4636528    0.2108793    0.4874934 
H     1.1798452   -3.3795314   -0.9421495 
H    -1.6586280   -0.0866201   -3.7537294 
H    -2.7067889    3.8649692   -3.6602065 
H    -1.4102607    5.1430862   -3.5043554 
H     4.5519920    3.4596036   -3.2595088 
H     3.3169706    3.7824338   -4.5649207 
H    -4.4908869    1.5955223    0.0069445 
H    -5.1154007    2.1104946   -2.3586560 
H    -2.5360729   -4.6415915   -4.0262218 
H     1.1328777   -5.6529342   -1.9635936 
H    -0.7213552   -6.2850903   -3.5221776 
H    -3.7013385    1.2529362   -4.2373909 
H     2.6638108    4.1637722    4.5783889 
H     3.9476969    0.0815723    5.2298129 
H     3.9041359    2.4799542    5.9479250 
H     5.5780107    2.5021581   -0.8130929 
H     4.8985854   -1.7355309   -1.3883613 
H     6.3195996    0.2925463   -1.7227907 
