101
Energy =
C     2.5733357   -2.0175673   -1.1950470 
C     1.6633553   -3.0652976   -0.8673569 
C     0.4413998   -3.2257420   -1.5583213 
H     1.8342657   -3.6582737    0.0403768 
Pd    0.5952278   -1.1378295   -0.6332882 
P    -1.5801314   -0.6729717    0.1064861 
P     1.3129422    1.0899755   -0.4934428 
H     2.6117684   -1.6909777   -2.2434549 
H     0.3384746   -2.7238540   -2.5340287 
C     6.0950287   -1.0431465    1.0842023 
C     6.0103384   -0.7190477   -0.2771666 
C     4.8618605   -1.0446064   -1.0092123 
C     3.7734328   -1.7028103   -0.3954003 
C     3.8748779   -2.0264683    0.9787990 
C     5.0214000   -1.7009419    1.7086362 
H     6.9911780   -0.7865149    1.6583903 
H     6.8407442   -0.2070376   -0.7743290 
H     4.8009866   -0.7844647   -2.0714158 
H     3.0398260   -2.5224192    1.4864441 
H     5.0786423   -1.9549331    2.7723094 
C    -2.4683110   -6.3030896   -0.8390185 
C    -1.1600054   -6.4571415   -0.3554724 
C    -0.2060293   -5.4576278   -0.5750705 
C    -0.5417259   -4.2873911   -1.2941286 
C    -1.8590182   -4.1547969   -1.7907232 
C    -2.8144462   -5.1476460   -1.5578865 
H    -3.2149203   -7.0841065   -0.6625281 
H    -0.8798300   -7.3643909    0.1897721 
H     0.8167195   -5.6032649   -0.2125424 
H    -2.1352376   -3.2489162   -2.3425831 
H    -3.8342839   -5.0202556   -1.9341442 
O    -0.7896165    4.0100967    2.4571881 
O    -3.1981405    3.7522482    0.1924641 
O    -0.8878629    3.1722540    4.6214830 
O    -3.1630035    4.7847309   -1.8851034 
C    -1.2006349    1.8741543    1.2890895 
C    -1.0803781    2.5061065   -0.0552570 
C    -1.4826930    0.4891009    1.5330507 
C     0.0081358    2.2997511   -0.9651769 
C    -1.0603921    2.6701324    2.4223360 
C    -2.0576298    3.4016127   -0.4773205 
C    -1.1243107    2.1662833    3.7295966 
C    -2.0363993    4.0285153   -1.7320852 
C    -2.7154694    0.1303617   -1.0879100 
C    -2.4762910   -2.1335704    0.7683266 
C     1.8653155    1.6484316    1.1609328 
C     2.6894059    1.4209822   -1.6659815 
C    -1.5702559   -0.0010020    2.8494606 
C     0.0352795    2.9568017   -2.2092895 
C    -1.3846349    0.8264953    3.9776451 
C    -0.9934532    3.8291161   -2.6244712 
C    -3.2264080    0.7504420   -3.3870725 
C    -2.3489457   -4.2194497    2.0261994 
C    -4.7332387    1.3948115   -1.5911166 
C    -4.4866309   -3.4445909    1.1741283 
C     2.3636061    1.1197680    3.4823564 
C     3.5698768    1.1588847   -3.9288882 
C     2.4822003    3.4219611    2.7063952 
C     4.8897563    2.2933234   -2.2352985 
C    -2.3880872    0.1194436   -2.4576262 
C    -1.7210258   -3.1028568    1.4624207 
C    -3.8914231    0.7793048   -0.6561250 
C    -3.8640182   -2.3198231    0.6157259 
C     1.9989428    0.7037985    2.1956045 
C     2.5536370    0.9449001   -2.9895258 
C     2.1003392    3.0145695    1.4217101 
C     3.8708299    2.0871437   -1.2923571 
C    -4.3999853    1.3864175   -2.9549013 
C    -3.7341270   -4.3909905    1.8840379 
C     2.6071975    2.4777408    3.7384023 
C     4.7416656    1.8364425   -3.5519336 
C    -0.7576301    4.3789631    3.8483660 
C    -3.8408648    4.7544209   -0.6168103 
H    -1.8004641   -1.0568704    3.0150270 
H     0.8841132    2.8063423   -2.8807589 
H    -1.4476815    0.4333244    4.9948575 
H    -0.9674117    4.3261334   -3.5968455 
H    -1.4599550   -0.3632516   -2.7863127 
H    -0.6342833   -2.9818846    1.5495235 
H    -4.1286261    0.8309511    0.4116744 
H    -4.4615049   -1.5963363    0.0541286 
H     1.7898051   -0.3508261    1.9900871 
H     1.6453660    0.4034239   -3.2825623 
H     1.9606391    3.7572790    0.6290299 
H     4.0091229    2.4297314   -0.2631935 
H    -1.6054505    5.0546079    4.0702449 
H     0.2102273    4.8570126    4.0778641 
H    -3.7491042    5.7416928   -0.1233505 
H    -4.8969671    4.4786858   -0.7723625 
H     3.4510652    0.7920615   -4.9536440 
H     5.5396957    1.9991870   -4.2835763 
H     2.4508817    0.3838568    4.2879461 
H     2.6707780    4.4825031    2.9046140 
H     2.8894818    2.8018870    4.7454559 
H     5.8076681    2.8073096   -1.9320856 
H    -2.9596946    0.7524656   -4.4487973 
H    -5.6473470    1.8932361   -1.2515146 
H    -5.0521389    1.8826268   -3.6808911 
H    -1.7531561   -4.9669804    2.5588383 
H    -5.5657417   -3.5819755    1.0493966 
H    -4.2238205   -5.2698653    2.3156825 
