101
Energy =
C    -0.2106657   -0.8809665    3.3533439 
C    -0.5792398   -2.1404015    2.8309695 
C     0.2714390   -2.8499676    1.9356799 
H    -1.5871881   -2.5232918    3.0289175 
Pd   -0.3012734   -0.8452632    1.0527976 
P     0.6783502   -1.1630147   -1.0824584 
P    -0.7500812    1.4073712    0.6470425 
H     0.8539009   -0.6072722    3.2842821 
H     1.3497150   -2.6527473    2.0099080 
C    -2.2849266    1.4472048    6.3061948 
C    -2.8937850    0.2925047    5.7863094 
C    -2.2487547   -0.4646565    4.8042953 
C    -0.9699196   -0.0892868    4.3287735 
C    -0.3747476    1.0801780    4.8583653 
C    -1.0241476    1.8419631    5.8342152 
H    -2.7937879    2.0370875    7.0752978 
H    -3.8769461   -0.0201643    6.1530076 
H    -2.7389643   -1.3633850    4.4164475 
H     0.6148251    1.3845122    4.4994337 
H    -0.5470503    2.7447215    6.2278363 
C    -0.6116900   -6.7101336    0.2549078 
C    -1.6405043   -5.9632749    0.8509459 
C    -1.3772077   -4.6950478    1.3774253 
C    -0.0715133   -4.1510724    1.3376500 
C     0.9497014   -4.9103226    0.7212548 
C     0.6831149   -6.1740888    0.1851728 
H    -0.8200183   -7.7024577   -0.1578935 
H    -2.6549793   -6.3722176    0.9036847 
H    -2.1979352   -4.1263593    1.8269718 
H     1.9634584   -4.4979115    0.6669828 
H     1.4886151   -6.7434341   -0.2891996 
O     3.3283620    2.3606929   -2.5955349 
O     0.2403127    3.5830222   -3.3868507 
O     4.7746918    3.0082728   -0.8985825 
O    -1.0103206    2.8210823   -5.1892022 
C     1.3546986    1.9489345   -1.1682846 
C     0.5538638    1.3928102   -2.2956238 
C     0.9084891    2.0394920    0.1892749 
C     0.2259247    0.0022532   -2.4356534 
C     2.6666532    2.3574466   -1.3993076 
C     0.1045614    2.2248095   -3.3140046 
C     3.5412087    2.7467420   -0.3746272 
C    -0.6515767    1.7651640   -4.4033280 
C    -1.9160846    1.8295781   -0.7145853 
C    -1.4335718    2.4931980    1.9612771 
C     2.5046963   -0.9486174   -0.9664099 
C     0.3715243   -2.8129847   -1.8190035 
C     1.8014013    2.4116335    1.2151976 
C    -0.5024119   -0.4523172   -3.5497273 
C     3.1395124    2.7733119    0.9541278 
C    -0.9586795    0.4217269   -4.5593011 
C    -2.9982751    3.5058112   -2.1043950 
C    -1.6449422    4.5881113    3.1812948 
C    -3.6277193    1.1664671   -2.3094589 
C    -3.3189796    2.8510727    3.4623649 
C     4.6644677   -0.6328256   -2.0495216 
C    -1.2702309   -4.5424041   -2.3233435 
C     4.5205244   -0.6635928    0.3751675 
C     1.0156310   -4.7692310   -3.1139258 
C    -2.0746253    3.1749546   -1.1063873 
C    -0.9495903    3.7797523    2.2692794 
C    -2.7039331    0.8286389   -1.3096449 
C    -2.6223354    2.0339174    2.5665522 
C     3.2783098   -0.8144027   -2.1395397 
C    -0.9375348   -3.3285776   -1.7111558 
C     3.1364654   -0.8655686    0.2894344 
C     1.3522943   -3.5492934   -2.5109507 
C    -3.7727675    2.5023130   -2.7101741 
C    -2.8280685    4.1280984    3.7761153 
C     5.2873875   -0.5525790   -0.7939756 
C    -0.2943945   -5.2621631   -3.0295372 
C     4.6386897    2.8937000   -2.3265917 
C    -0.3737496    3.9826583   -4.6265153 
H     1.4527136    2.4200119    2.2524719 
H    -0.7313155   -1.5169597   -3.6437902 
H     3.8281933    3.0529074    1.7546440 
H    -1.5367787    0.0614419   -5.4131271 
H    -1.4698310    3.9588361   -0.6388137 
H    -0.0453098    4.1636122    1.7875773 
H    -2.5773387   -0.2150175   -0.9997353 
H    -3.0049581    1.0359536    2.3238981 
H     2.7918326   -0.8242890   -3.1205015 
H    -1.6923652   -2.7764020   -1.1387244 
H     2.5333865   -0.9216494    1.2017072 
H     2.3789037   -3.1782975   -2.5775442 
H     4.7316715    3.8946294   -2.7901353 
H     5.4027169    2.1971778   -2.7108307 
H     0.4036797    4.3523530   -5.3221872 
H    -1.1348432    4.7556822   -4.4252697 
H    -2.2869088   -4.9365115   -2.2316795 
H    -0.5524966   -6.2160760   -3.5007248 
H     5.2576381   -0.5401377   -2.9655675 
H     4.9987754   -0.5829482    1.3565064 
H     6.3685430   -0.3936936   -0.7265372 
H     1.7831496   -5.3373320   -3.6497181 
H    -3.1190726    4.5515064   -2.4070034 
H    -4.2309578    0.3830943   -2.7793732 
H    -4.4920420    2.7637477   -3.4930174 
H    -1.2640820    5.5876818    3.4158850 
H    -4.2405337    2.4857507    3.9253159 
H    -3.3700436    4.7650139    4.4827706 
