101
Energy =
C    -1.5287062   -1.2318457    3.0270963 
C    -1.4472861   -2.4031772    2.2410870 
C    -0.1910982   -2.9447013    1.8392204 
H    -2.3688620   -2.8058827    1.8013447 
Pd   -0.3705104   -0.8450268    1.0908396 
P     1.4886567   -0.9047502   -0.3370788 
P    -1.0217475    1.3139657    0.4501832 
H    -0.6207110   -0.9173053    3.5667150 
H     0.6592721   -2.8072102    2.5213571 
C    -5.1439123    0.6022636    4.4482468 
C    -3.9352989    1.3170650    4.4424228 
C    -2.7642582    0.7095095    3.9816941 
C    -2.7797781   -0.6198341    3.4997541 
C    -4.0032536   -1.3285117    3.5135280 
C    -5.1716261   -0.7235202    3.9890396 
H    -6.0598844    1.0756441    4.8162545 
H    -3.9083783    2.3527391    4.7953206 
H    -1.8244985    1.2735987    3.9683200 
H    -4.0362272   -2.3712050    3.1812932 
H    -6.1076003   -1.2913943    4.0081944 
C     0.2815420   -6.2102145   -0.9278688 
C     1.2669528   -5.9349680    0.0305587 
C     1.1012031   -4.8718899    0.9267516 
C    -0.0554055   -4.0627080    0.8851675 
C    -1.0426938   -4.3544105   -0.0859733 
C    -0.8759622   -5.4148704   -0.9807463 
H     0.4114646   -7.0391131   -1.6312546 
H     2.1726943   -6.5481721    0.0811872 
H     1.8774779   -4.6594135    1.6696654 
H    -1.9431833   -3.7333416   -0.1531044 
H    -1.6486511   -5.6211914   -1.7288050 
O     1.5286788    1.7181296   -4.1770855 
O     1.9352895    4.1158181   -1.9187370 
O    -0.3679522    1.4151175   -5.4836483 
O     3.9172525    4.5288098   -0.7850150 
C     0.4052232    1.5908126   -1.9823569 
C     1.6867288    1.7545147   -1.2391944 
C    -0.8901828    1.4492131   -1.3827991 
C     2.3378020    0.7216776   -0.4876100 
C     0.4283227    1.5990455   -3.3740716 
C     2.3526949    2.9748496   -1.2892814 
C    -0.7168336    1.4214189   -4.1640259 
C     3.5525008    3.2251498   -0.6067593 
C    -2.7790272    1.7073710    0.8129843 
C    -0.0352373    2.7138595    1.1040048 
C     2.7844252   -2.0393923    0.3051740 
C     1.1483656   -1.3948365   -2.0687459 
C    -2.0363137    1.2983264   -2.1855358 
C     3.5569581    0.9740319    0.1683226 
C    -1.9733470    1.2730341   -3.5953564 
C     4.1864967    2.2365360    0.1311685 
C    -4.5799628    3.2241650    1.4302955 
C     0.6781010    5.0392782    1.0228391 
C    -5.0794453    0.9033388    0.9201416 
C     1.6055042    3.5441202    2.7008505 
C     4.0936830   -2.7853896    2.2271477 
C     1.8374407   -1.5979512   -4.3923520 
C     4.3911149   -3.8526086    0.0661713 
C    -0.4311232   -2.1859249   -3.7410671 
C    -3.2179433    2.9894162    1.1969927 
C    -0.0975354    3.9919436    0.5098659 
C    -3.7193867    0.6614819    0.6952308 
C     0.8194505    2.4962482    2.2019655 
C     3.1189639   -1.9452167    1.6749546 
C     2.1347879   -1.2544532   -3.0672311 
C     3.4197318   -3.0079478   -0.4931443 
C    -0.1344705   -1.8616901   -2.4111463 
C    -5.5120718    2.1866550    1.2865728 
C     1.5339589    4.8161230    2.1131619 
C     4.7336419   -3.7415144    1.4206015 
C     0.5542451   -2.0566080   -4.7317372 
C     1.0447771    1.6846113   -5.5325268 
C     2.9927827    5.0763136   -1.7414003 
H    -3.0165524    1.2074383   -1.7101345 
H     4.0511568    0.1688857    0.7172406 
H    -2.8689656    1.1479478   -4.2081513 
H     5.1276556    2.4243818    0.6528464 
H    -2.5008687    3.8050555    1.3251227 
H    -0.7256998    4.1566415   -0.3717990 
H    -3.3770559   -0.3478818    0.4357694 
H     0.8837321    1.4952858    2.6451078 
H     2.6108009   -1.2084883    2.3097829 
H     3.1221051   -0.8551509   -2.8119451 
H     3.1470771   -3.1205403   -1.5460951 
H    -0.9017901   -1.9415828   -1.6345796 
H     1.5524429    0.8733079   -6.0822403 
H     1.2181114    2.6674456   -6.0102997 
H     2.5723817    6.0163705   -1.3475224 
H     3.5102589    5.2378366   -2.7071327 
H     2.6075495   -1.4954323   -5.1644249 
H     0.3202456   -2.3080148   -5.7714215 
H     4.3501973   -2.6990036    3.2880722 
H     4.8744241   -4.6073679   -0.5626649 
H     5.4917577   -4.4030860    1.8521371 
H    -1.4348979   -2.5331166   -4.0057533 
H    -4.9119458    4.2236096    1.7299270 
H    -5.7994005    0.0841559    0.8304151 
H    -6.5745561    2.3733485    1.4731818 
H     0.6225108    6.0309721    0.5614698 
H     2.2801123    3.3660171    3.5444265 
H     2.1513929    5.6329597    2.5006367 
