101
Energy =
C    -1.2645276   -1.0125246    3.0784743 
C    -1.1491143   -2.3110970    2.5002161 
C     0.1093530   -2.8697968    2.1843470 
H    -2.0536716   -2.8205531    2.1434695 
Pd   -0.1911307   -0.8609189    1.1249274 
P     0.7925484   -1.1687819   -0.9811124 
P    -0.2489909    1.4770024    0.9573196 
H    -0.4549802   -0.6820545    3.7438317 
H     0.9985302   -2.4220904    2.6572164 
C    -4.9878741    1.0713570    3.6630824 
C    -4.8910918    0.0844764    2.6670453 
C    -3.6895847   -0.6017459    2.4704583 
C    -2.5538185   -0.3186209    3.2662507 
C    -2.6678205    0.6734190    4.2648779 
C    -3.8722105    1.3603091    4.4613909 
H    -5.9291147    1.6099351    3.8135953 
H    -5.7572505   -0.1451316    2.0375549 
H    -3.6266249   -1.3550223    1.6769653 
H    -1.7990487    0.9074045    4.8894630 
H    -3.9360432    2.1267233    5.2407836 
C     0.7790853   -6.7549711    0.4784161 
C    -0.4541198   -6.4643060    1.0817635 
C    -0.6875856   -5.1996393    1.6327251 
C     0.3156676   -4.2038607    1.6001790 
C     1.5596565   -4.5178465    1.0056475 
C     1.7857132   -5.7766177    0.4425027 
H     0.9585231   -7.7434287    0.0434076 
H    -1.2355868   -7.2297723    1.1294355 
H    -1.6460912   -4.9956767    2.1209982 
H     2.3433366   -3.7525707    0.9658794 
H     2.7481166   -5.9962939   -0.0301657 
O     2.8040648    2.4396383   -3.2458599 
O    -0.3462053    3.4889757   -3.2365610 
O     4.5243214    3.4318302   -2.0457851 
O    -2.0420710    2.6531605   -4.5861760 
C     1.3174979    1.9909987   -1.3253137 
C     0.2769020    1.3478889   -2.1765955 
C     1.2202560    2.1729653    0.0935579 
C    -0.0345990   -0.0521732   -2.1903387 
C     2.4658480    2.5021089   -1.9213946 
C    -0.4522999    2.1369068   -3.0616056 
C     3.5055369    3.1046631   -1.1975695 
C    -1.4731343    1.6325876   -3.8804936 
C    -1.6775599    2.1789195    0.0511841 
C    -0.2204990    2.2647518    2.6178549 
C     2.5811846   -0.7946217   -1.1288445 
C     0.5577971   -2.8513390   -1.6803401 
C     2.2550959    2.8064666    0.8063172 
C    -1.0430956   -0.5517624   -3.0354381 
C     3.4267479    3.2775583    0.1763882 
C    -1.7907454    0.2823136   -3.8941223 
C    -2.7907476    4.0466068   -1.0384422 
C     0.7853556    2.3360316    4.8422936 
C    -3.8048774    1.8361156   -1.0777580 
C    -1.0444727    3.8332824    4.2876102 
C     4.5503827   -0.2897178   -2.4669747 
C    -0.9133153   -4.7808647   -1.9287359 
C     4.7221785   -0.3820397   -0.0435326 
C     1.2631595   -4.7673779   -3.0054061 
C    -1.7053757    3.5420294   -0.3106454 
C     0.7186778    1.7830070    3.5575349 
C    -2.7312948    1.3292316   -0.3344996 
C    -1.1101403    3.2867251    2.9964750 
C     3.1833349   -0.5838726   -2.3871297 
C    -0.6553853   -3.5132223   -1.3943972 
C     3.3577863   -0.6919222    0.0415606 
C     1.5226286   -3.4941348   -2.4801029 
C    -3.8364897    3.1943479   -1.4287063 
C    -0.0977416    3.3656014    5.2091131 
C     5.3195767   -0.1830885   -1.2973485 
C     0.0458999   -5.4093543   -2.7368611 
C     4.0405465    3.1656338   -3.3740109 
C    -1.2918802    3.8382041   -4.2643058 
H     2.1541518    2.9582320    1.8836797 
H    -1.2553864   -1.6242668   -3.0421267 
H     4.2285552    3.7586463    0.7411259 
H    -2.5763571   -0.1153970   -4.5406255 
H    -0.8699737    4.1983272   -0.0446441 
H     1.3997348    0.9694199    3.2780154 
H    -2.6892667    0.2676448   -0.0706416 
H    -1.8680048    3.6465048    2.2950439 
H     2.5762471   -0.6168730   -3.2978843 
H    -1.3934388   -3.0320323   -0.7409104 
H     2.8806370   -0.8306335    1.0189969 
H     2.4812312   -3.0105191   -2.6872102 
H     3.8538258    4.1224114   -3.8996854 
H     4.7754940    2.5462364   -3.9141626 
H    -0.7479981    4.1878279   -5.1622838 
H    -1.9789085    4.6124625   -3.8814764 
H    -1.8551294   -5.2874212   -1.6967225 
H    -0.1511757   -6.4055340   -3.1459391 
H     5.0143366   -0.1317643   -3.4463709 
H     5.3183604   -0.2886720    0.8698473 
H     6.3844578    0.0625683   -1.3628400 
H     2.0195606   -5.2604977   -3.6247326 
H    -2.8136364    5.1070365   -1.3116372 
H    -4.6145543    1.1685922   -1.3890914 
H    -4.6748697    3.5886971   -2.0122198 
H     1.5219376    1.9602811    5.5599968 
H    -1.7460445    4.6235830    4.5737533 
H    -0.0508852    3.7947748    6.2152045 
