115
Energy =
C    -1.4166007    3.7720833   -0.5767089 
C    -2.7168029    3.1873957   -0.5658896 
C    -3.2559083    2.5987647    0.6004555 
H    -3.2442193    3.0397637   -1.5173120 
Pd   -1.2656169    1.6260075    0.0348221 
P    -1.5447618   -0.6439429    0.5287376 
P     1.0626959    1.4301015   -0.1061409 
H    -1.0629701    4.2359437    0.3544401 
H    -2.7939364    2.8631524    1.5653333 
C     0.6167061    5.1573677   -4.1128231 
C    -0.3930537    4.1863770   -4.2251949 
C    -1.0635910    3.7320701   -3.0862397 
C    -0.7428798    4.2388831   -1.8042836 
C     0.2714125    5.2169530   -1.7083889 
C     0.9436075    5.6708628   -2.8499302 
H     1.1433738    5.5093891   -5.0058179 
H    -0.6526315    3.7772430   -5.2073472 
H    -1.8336498    2.9593608   -3.1910464 
H     0.5355435    5.6195328   -0.7246406 
H     1.7286259    6.4276755   -2.7492140 
C    -7.1433964    0.7962133    0.9308646 
C    -6.1483582    0.5281270    1.8846112 
C    -4.8892951    1.1237347    1.7710543 
C    -4.5914627    1.9875778    0.6920735 
C    -5.6040239    2.2520733   -0.2583905 
C    -6.8683407    1.6651042   -0.1358797 
H    -8.1314361    0.3337119    1.0227976 
H    -6.3545699   -0.1527163    2.7165206 
H    -4.1105201    0.9008837    2.5094800 
H    -5.4125704    2.9466984   -1.0827966 
H    -7.6456042    1.8923061   -0.8730376 
O     1.8975694   -3.3776631    1.6450011 
O     3.1077323   -2.4667559   -0.9190761 
N     3.1457310   -2.5109062    4.0199322 
N     2.1209559   -3.6058935   -3.3053627 
C     1.5984343   -1.1462944    0.9127063 
C     0.9462703   -1.7254144   -0.3038790 
C     2.0871741   -2.0387859    1.8776541 
C     1.7698921   -2.4056672   -1.2147795 
C     2.7086500   -1.5907445    3.0822569 
C     1.2623610   -2.9690976   -2.4242512 
C     1.7683507    0.2534653    1.1090289 
C    -0.4513525   -1.6359874   -0.5606029 
C     2.8141192   -3.9171478    3.8271513 
C     3.5554657   -3.5132386   -3.0641661 
C     2.8163333   -4.2309653    2.3357793 
C     3.8101895   -3.5355519   -1.5618378 
C     2.8508527   -0.1952466    3.2543121 
C    -0.1257053   -2.8464073   -2.6600540 
C     2.4031619    0.7016174    2.2820697 
C    -0.9611950   -2.2071024   -1.7416105 
C     3.5922290   -2.0708084    5.3330003 
C     1.6609223   -3.9974760   -4.6288128 
C     1.8659284    3.0376706    0.2931353 
C     1.7185628    0.9014932   -1.7330083 
C    -3.2377850   -1.2616479    0.1589482 
C    -1.1769111   -1.1749708    2.2452102 
C     1.4031403    3.7356708    1.4312882 
C     0.8405050    0.7940531   -2.8269589 
C    -3.9040533   -0.7038474   -0.9530186 
C    -1.0085653   -2.5378351    2.5666657 
C     2.8777538    3.6117464   -0.4978302 
C     3.0827353    0.5811828   -1.8921091 
C    -3.8869450   -2.2501007    0.9236645 
C    -1.0632816   -0.2012531    3.2559401 
C     1.9635269    4.9687081    1.7867463 
C     1.3221484    0.3803752   -4.0756056 
C    -5.1802466   -1.1509581   -1.3139666 
C    -0.7628456   -2.9167221    3.8919925 
C     3.4328296    4.8508382   -0.1418751 
C     3.5623993    0.1884526   -3.1474794 
C    -5.1687381   -2.6887956    0.5639388 
C    -0.7928119   -0.5842533    4.5769956 
C     2.9834981    5.5287064    0.9992555 
C     2.6839231    0.0854643   -4.2385546 
C    -5.8146485   -2.1463893   -0.5559681 
C    -0.6510413   -1.9427877    4.8971067 
H     3.5729682   -4.5391022    4.3346873 
H     1.8245086   -4.1696675    4.2599140 
H     4.0558698   -4.3780387   -3.5349538 
H     3.9865610   -2.5894762   -3.5010515 
H     3.8312659   -4.0963477    1.9138495 
H     2.4778808   -5.2607931    2.1456725 
H     3.4852576   -4.5017494   -1.1289215 
H     4.8759152   -3.3771647   -1.3370382 
H     3.3228522    0.1991127    4.1567054 
H    -0.5637088   -3.2598990   -3.5710192 
H     2.5621504    1.7695199    2.4497366 
H    -2.0318145   -2.1575273   -1.9573452 
H     4.4441783   -1.3723162    5.2489868 
H     3.9291512   -2.9487585    5.9048099 
H     2.7828992   -1.5689884    5.9021937 
H     2.4769782   -4.5260582   -5.1446742 
H     1.3626751   -3.1234281   -5.2440682 
H     0.8000143   -4.6862173   -4.5606126 
H     0.5966452    3.3078001    2.0399549 
H    -0.2217729    1.0171234   -2.6855725 
H    -3.4190759    0.0938878   -1.5291586 
H    -1.0379031   -3.2940334    1.7756262 
H     3.2228476    3.1065702   -1.4040683 
H     3.7582223    0.6175373   -1.0310878 
H    -3.4024572   -2.6730083    1.8080436 
H    -1.1662853    0.8588691    2.9955235 
H     1.6005092    5.4965869    2.6747784 
H     0.6328852    0.2884426   -4.9212326 
H    -5.6888698   -0.7059155   -2.1746968 
H    -0.6490345   -3.9776322    4.1387662 
H     4.2147341    5.2903387   -0.7698483 
H     4.6245446   -0.0482872   -3.2717029 
H    -5.6661199   -3.4553567    1.1673556 
H    -0.6918711    0.1783454    5.3560768 
H     3.4184776    6.4957070    1.2720705 
H     3.0619895   -0.2305407   -5.2168846 
H    -6.8179565   -2.4878607   -0.8305832 
H    -0.4480966   -2.2431012    5.9306873 
