115
Energy =
C    -1.4581531    3.7652741   -0.5152536 
C    -2.7541422    3.1718920   -0.5168272 
C    -3.2927713    2.5650233    0.6405061 
H    -3.2779826    3.0339005   -1.4716452 
Pd   -1.2961551    1.6106981    0.0680317 
P    -1.5578873   -0.6659022    0.5393292 
P     1.0342218    1.4331051   -0.0676077 
H    -1.1099936    4.2164781    0.4241421 
H    -2.8345384    2.8205019    1.6095368 
C     0.5793448    5.2192649   -4.0209637 
C     0.9014138    5.7111243   -2.7482385 
C     0.2277142    5.2347656   -1.6168095 
C    -0.7832002    4.2553097   -1.7328442 
C    -1.0993599    3.7708493   -3.0245280 
C    -0.4273687    4.2476604   -4.1533808 
H     1.1074271    5.5885724   -4.9061076 
H     1.6835209    6.4687442   -2.6320144 
H     0.4875103    5.6209016   -0.6253453 
H    -1.8669927    2.9981094   -3.1454709 
H    -0.6834430    3.8556869   -5.1434115 
C    -7.1763803    0.7508586    0.9504955 
C    -6.1821484    0.4777663    1.9036806 
C    -4.9238706    1.0760244    1.7957735 
C    -4.6260273    1.9478544    0.7231671 
C    -5.6373968    2.2163119   -0.2274731 
C    -6.9009308    1.6265091   -0.1106232 
H    -8.1641496    0.2870151    1.0385297 
H    -6.3884336   -0.2089242    2.7307421 
H    -4.1458755    0.8500738    2.5340878 
H    -5.4460049    2.9166360   -1.0470494 
H    -7.6773488    1.8568850   -0.8476875 
O     1.9690445   -3.4024670    1.5243511 
O     3.1004798   -2.3890812   -1.0014812 
N     3.2632619   -2.5919558    3.9035422 
N     2.0966263   -3.5375960   -3.3718701 
C     1.5988271   -1.1592049    0.8911662 
C     0.9358698   -1.7123603   -0.3314636 
C     2.1173941   -2.0743252    1.8240790 
C     1.7567176   -2.3583685   -1.2688439 
C     2.7663963   -1.6417129    3.0192950 
C     1.2406851   -2.9210909   -2.4749032 
C     1.7530341    0.2359144    1.1225493 
C    -0.4664778   -1.6386502   -0.5680703 
C     3.5209650   -3.9109994    3.3378767 
C     3.5335269   -3.4388924   -3.1449396 
C     2.2925869   -4.3481578    2.5505321 
C     3.8057735   -3.4546005   -1.6452370 
C     2.8851693   -0.2510979    3.2296242 
C    -0.1525545   -2.8184364   -2.6883492 
C     2.3902316    0.6668551    2.3002716 
C    -0.9833457   -2.2007403   -1.7507195 
C     4.0225327   -2.1782307    5.0729905 
C     1.6248048   -3.9292659   -4.6910978 
C     1.8208155    3.0387883    0.3700181 
C     1.6952530    0.9466900   -1.7049569 
C    -3.2503969   -1.2902610    0.1784093 
C    -1.1781198   -1.1974895    2.2524323 
C     2.8320161    3.6385146   -0.4025657 
C     3.0624230    0.6448631   -1.8731295 
C    -3.9255998   -0.7314053   -0.9277565 
C    -1.0119934   -2.5596941    2.5804807 
C     1.3447113    3.7085232    1.5196065 
C     0.8157925    0.8508336   -2.7991727 
C    -3.8917466   -2.2830772    0.9440584 
C    -1.0694426   -0.2206568    3.2599028 
C     3.3729704    4.8752264   -0.0176903 
C     3.5432768    0.2809072   -3.1367398 
C    -5.2020707   -1.1823326   -1.2827484 
C    -0.7783858   -2.9321014    3.9103464 
C     1.8907028    4.9394904    1.9036347 
C     1.2989624    0.4668858   -4.0564281 
C    -5.1741259   -2.7252916    0.5906497 
C    -0.8063361   -0.5973603    4.5846152 
C     2.9098416    5.5253691    1.1340889 
C     2.6635597    0.1894602   -4.2276162 
C    -5.8285271   -2.1821417   -0.5238994 
C    -0.6698544   -1.9537178    4.9119237 
H     4.4167877   -3.9112556    2.6794504 
H     3.7023193   -4.6265920    4.1573751 
H     4.0323273   -4.3028726   -3.6192123 
H     3.9556322   -2.5145493   -3.5896531 
H     2.4637031   -5.3052556    2.0328989 
H     1.4313833   -4.4538777    3.2343412 
H     3.4944276   -4.4202201   -1.2016963 
H     4.8726053   -3.2854529   -1.4343106 
H     3.3959380    0.1234490    4.1194111 
H    -0.5984757   -3.2291287   -3.5967869 
H     2.5357146    1.7323615    2.4930013 
H    -2.0572089   -2.1627604   -1.9521326 
H     3.4339230   -1.4670527    5.6776825 
H     4.9908968   -1.7005856    4.8129473 
H     4.2259712   -3.0650089    5.6934899 
H     0.7750682   -4.6311314   -4.6155185 
H     2.4416504   -4.4426395   -5.2208419 
H     1.3054682   -3.0564462   -5.2973674 
H     3.1871568    3.1557281   -1.3171114 
H     3.7395269    0.6709871   -1.0130985 
H    -3.4473421    0.0700995   -1.5042393 
H    -1.0448937   -3.3190575    1.7920570 
H     0.5388967    3.2603921    2.1144472 
H    -0.2486364    1.0587969   -2.6510646 
H    -3.4009517   -2.7067335    1.8245344 
H    -1.1730267    0.8382843    2.9945350 
H     4.1543446    5.3350642   -0.6316047 
H     4.6072319    0.0561167   -3.2672924 
H    -5.7171826   -0.7367158   -2.1392921 
H    -0.6788969   -3.9915825    4.1694574 
H     1.5170394    5.4455692    2.7998993 
H     0.6088446    0.3838920   -4.9022759 
H    -5.6651896   -3.4952844    1.1948725 
H    -0.7098035    0.1689952    5.3605623 
H     3.3334495    6.4908802    1.4291572 
H     3.0426461   -0.1041656   -5.2125023 
H    -6.8323920   -2.5260770   -0.7933285 
H    -0.4748262   -2.2506979    5.9477029 
