115
Energy =
C    -1.4405098    3.7797244   -0.5277467 
C    -2.7378259    3.1891829   -0.5346356 
C    -3.2819871    2.5851847    0.6214678 
H    -3.2580572    3.0519941   -1.4915729 
Pd   -1.2844408    1.6257296    0.0567738 
P    -1.5513605   -0.6490885    0.5291167 
P     1.0464115    1.4487968   -0.0759642 
H    -1.0961650    4.2314627    0.4128636 
H    -2.8255782    2.8399898    1.5915327 
C     0.6140223    5.2292009   -4.0247135 
C    -0.3828574    4.2478371   -4.1596114 
C    -1.0602955    3.7723040   -3.0335150 
C    -0.7592618    4.2677258   -1.7424791 
C     0.2424133    5.2561801   -1.6237192 
C     0.9212791    5.7316633   -2.7524610 
H     1.1463462    5.5976356   -4.9076796 
H    -0.6264528    3.8469218   -5.1491806 
H    -1.8196552    2.9915814   -3.1553934 
H     0.4907202    5.6498406   -0.6322514 
H     1.6959939    6.4966032   -2.6345807 
C    -7.1725844    0.7854968    0.9244927 
C    -6.1821425    0.5113127    1.8812962 
C    -4.9212650    1.1044273    1.7753095 
C    -4.6172377    1.9723365    0.7012511 
C    -5.6248325    2.2419318   -0.2530998 
C    -6.8908656    1.6571887   -0.1382548 
H    -8.1622918    0.3254942    1.0108893 
H    -6.3935125   -0.1720636    2.7098096 
H    -4.1460811    0.8776497    2.5163459 
H    -5.4284359    2.9392166   -1.0740719 
H    -7.6643684    1.8885334   -0.8780671 
O     1.9110086   -3.3889214    1.5377234 
O     3.0923759   -2.4220067   -0.9832243 
N     3.2437751   -2.5897596    3.8963505 
N     2.0820270   -3.6055688   -3.3432198 
C     1.5980207   -1.1472775    0.8789098 
C     0.9390065   -1.7013152   -0.3461764 
C     2.0961680   -2.0640080    1.8219565 
C     1.7591066   -2.3615028   -1.2802424 
C     2.7559824   -1.6341167    3.0122843 
C     1.2266890   -2.9432865   -2.4704242 
C     1.7658146    0.2469021    1.1078818 
C    -0.4625225   -1.6223192   -0.5836604 
C     3.4991940   -3.9047912    3.3192880 
C     3.3385150   -4.0693101   -2.7661546 
C     2.2613331   -4.3420824    2.5473340 
C     3.9714076   -2.9152583   -2.0002852 
C     2.8953032   -0.2450084    3.2156394 
C    -0.1633146   -2.8311711   -2.6850474 
C     2.4077724    0.6750027    2.2841467 
C    -0.9877863   -2.1814616   -1.7631667 
C     4.0142989   -2.1827063    5.0607080 
C     1.5475841   -4.3091941   -4.4983077 
C     1.8223280    3.0564668    0.3757551 
C     1.7082878    0.9774527   -1.7161310 
C    -3.2458780   -1.2682061    0.1683819 
C    -1.1707733   -1.1825834    2.2408788 
C     2.8264636    3.6761327   -0.3902776 
C     0.8227183    0.8484896   -2.8011905 
C    -3.9171510   -0.7106432   -0.9409861 
C    -1.0220395   -2.5461565    2.5717001 
C     1.3400567    3.7089133    1.5329488 
C     3.0849007    0.7299275   -1.8994140 
C    -3.8937336   -2.2540245    0.9376344 
C    -1.0428778   -0.2045142    3.2450949 
C     3.3560785    4.9131668    0.0094331 
C     1.3068084    0.4855751   -4.0646681 
C    -5.1948917   -1.1574755   -1.2964988 
C    -0.7856361   -2.9180310    3.9011871 
C     1.8736050    4.9407709    1.9310536 
C     3.5673100    0.3997138   -3.1724290 
C    -5.1775370   -2.6918002    0.5839123 
C    -0.7765647   -0.5812383    4.5690340 
C     2.8874031    5.5452714    1.1688330 
C     2.6795366    0.2710621   -4.2535679 
C    -5.8272540   -2.1511713   -0.5345584 
C    -0.6568603   -1.9385194    4.8991863 
H     4.3851243   -3.8961579    2.6477767 
H     3.6950766   -4.6245878    4.1315512 
H     3.1873504   -4.9396298   -2.0911918 
H     4.0153408   -4.3826635   -3.5787385 
H     2.4309133   -5.2927189    2.0169203 
H     1.4127527   -4.4620463    3.2445785 
H     4.8879328   -3.2309548   -1.4770437 
H     4.2130521   -2.0942191   -2.6989598 
H     3.4129186    0.1267603    4.1026741 
H    -0.6157888   -3.2792442   -3.5724656 
H     2.5634065    1.7396012    2.4736364 
H    -2.0618548   -2.1393850   -1.9616132 
H     3.4371565   -1.4629993    5.6662282 
H     4.9871846   -1.7173536    4.7948322 
H     4.2099017   -3.0703729    5.6825167 
H     0.9128638   -5.1773053   -4.2203011 
H     2.3880751   -4.6727300   -5.1101072 
H     0.9466456   -3.6226999   -5.1191590 
H     3.1845673    3.2100468   -1.3120935 
H    -0.2475898    1.0137904   -2.6410355 
H    -3.4348171    0.0868152   -1.5196651 
H    -1.0693311   -3.3073612    1.7860170 
H     0.5389141    3.2461436    2.1228915 
H     3.7702402    0.7844175   -1.0469508 
H    -3.4071142   -2.6756091    1.8213429 
H    -1.1338074    0.8549933    2.9773844 
H     4.1322433    5.3878448   -0.5997611 
H     0.6107340    0.3737743   -4.9022021 
H    -5.7064231   -0.7130461   -2.1557904 
H    -0.6991889   -3.9780692    4.1625227 
H     1.4947898    5.4326584    2.8330293 
H     4.6403757    0.2379561   -3.3215521 
H    -5.6734103   -3.4563125    1.1911523 
H    -0.6642529    0.1858186    5.3421334 
H     3.3019317    6.5111675    1.4752798 
H     3.0605023   -0.0004258   -5.2437173 
H    -6.8320819   -2.4918980   -0.8044328 
H    -0.4595143   -2.2354103    5.9345365 
