115
Energy =
C     1.1364894   -0.1467480   -3.9064644 
C     2.2684048   -0.8873004   -3.4557603 
C     2.1355100   -2.1800401   -2.9003348 
H     3.2414259   -0.3842586   -3.3820716 
Pd    0.8812774   -0.6570391   -1.7448501 
P     1.0597974   -1.3084326    0.4953278 
P    -0.9621098    0.7219161   -1.3195352 
H     0.2892540   -0.7159362   -4.3131808 
H     1.1984184   -2.7254252   -3.0969816 
C     1.2454821    3.9755603   -5.1525574 
C     2.2397137    3.4818312   -4.2906765 
C     2.2184784    2.1451515   -3.8830164 
C     1.2024156    1.2662091   -4.3283801 
C     0.2128799    1.7764733   -5.1973219 
C     0.2343971    3.1160778   -5.6048177 
H     1.2616658    5.0239949   -5.4676920 
H     3.0315216    4.1469588   -3.9299961 
H     2.9905854    1.7832901   -3.1945384 
H    -0.5828314    1.1121487   -5.5511303 
H    -0.5454734    3.4885431   -6.2772767 
C     5.3580135   -4.6494250   -1.4902342 
C     4.0339888   -4.9135448   -1.1044232 
C     2.9929009   -4.1076446   -1.5729700 
C     3.2540876   -3.0093141   -2.4242350 
C     4.5912080   -2.7576005   -2.8080904 
C     5.6309738   -3.5735746   -2.3485153 
H     6.1729654   -5.2841781   -1.1274905 
H     3.8145970   -5.7482991   -0.4311947 
H     1.9622194   -4.3081690   -1.2585480 
H     4.8174665   -1.9370688   -3.4968875 
H     6.6592324   -3.3732946   -2.6673786 
O    -1.8507195    2.3693453    2.7458064 
O    -2.1554669   -0.4685413    3.5832639 
N     0.3803748    3.7865082    3.7348697 
N    -4.5734722   -1.7448653    2.8960542 
C    -0.4568242    0.7052182    1.8039343 
C    -1.7187024    0.0634801    1.3180477 
C    -0.5811304    1.8908265    2.5452207 
C    -2.5675495   -0.5108843    2.2751006 
C     0.5545817    2.6059756    3.0313807 
C    -3.7853806   -1.1640257    1.9171351 
C     0.8385207    0.1626339    1.5694943 
C    -2.1006108    0.0439951   -0.0532111 
C    -0.9545215    4.3690022    3.7919934 
C    -4.0590211   -1.8149853    4.2580506 
C    -1.9840957    3.2480896    3.8677547 
C    -3.2166349   -0.5762289    4.5381195 
C     1.8274708    2.0527048    2.7647851 
C    -4.1305019   -1.1788923    0.5467502 
C     1.9615411    0.8529010    2.0627771 
C    -3.3122793   -0.5756271   -0.4106792 
C     1.5224600    4.6290104    4.0545561 
C    -5.7047584   -2.5838764    2.5308175 
C     2.7295881   -1.9448298    0.9327786 
C    -0.1337269   -2.5648535    1.0955933 
C    -2.0019444    0.8858750   -2.8296363 
C    -0.5695219    2.4219179   -0.7609441 
C     3.8381958   -1.3568732    0.2872037 
C    -0.8751766   -3.3102909    0.1590369 
C    -2.4682302    2.1212098   -3.3149301 
C     0.7688585    2.8555540   -0.7652708 
C     2.9462282   -2.9753953    1.8678089 
C    -0.3195485   -2.7938890    2.4747063 
C    -2.3038035   -0.2934359   -3.5473177 
C    -1.5872410    3.2860527   -0.3067160 
C     5.1399738   -1.7672241    0.5967511 
C    -1.7875260   -4.2814885    0.5943997 
C    -3.2426872    2.1719334   -4.4845745 
C     1.0894936    4.1476119   -0.3294610 
C     4.2511898   -3.3894889    2.1683872 
C    -1.2139990   -3.7819931    2.9035277 
C    -3.0817899   -0.2397298   -4.7103803 
C    -1.2632805    4.5835518    0.1077890 
C     5.3487368   -2.7844378    1.5399161 
C    -1.9510669   -4.5236648    1.9665965 
C    -3.5552060    0.9966542   -5.1809336 
C     0.0734640    5.0146001    0.0993140 
H    -1.0325319    5.0016806    4.6940159 
H    -1.1626852    5.0063658    2.9084998 
H    -4.9089128   -1.8487738    4.9629588 
H    -3.4476494   -2.7260754    4.4205838 
H    -1.8582040    2.6703691    4.8042016 
H    -3.0092564    3.6459955    3.8217210 
H    -3.8436315    0.3355691    4.4953021 
H    -2.7335319   -0.6385770    5.5250084 
H     2.7283419    2.5617453    3.1141082 
H    -5.0538746   -1.6623832    0.2205886 
H     2.9661154    0.4527932    1.9014650 
H    -3.6381423   -0.5896104   -1.4534966 
H     2.2672577    4.0750690    4.6534163 
H     1.1742873    5.4837930    4.6542603 
H     2.0238550    5.0179694    3.1442152 
H    -6.2135090   -2.9115391    3.4500326 
H    -5.3905325   -3.4831520    1.9621890 
H    -6.4344357   -2.0224921    1.9198665 
H     3.6730700   -0.5813673   -0.4708776 
H    -0.7483724   -3.1078594   -0.9110894 
H    -2.2137645    3.0491745   -2.7956866 
H     1.5543173    2.1670813   -1.0928453 
H     2.1001535   -3.4668551    2.3558064 
H     0.2104730   -2.1773199    3.2077517 
H    -1.9233684   -1.2586875   -3.1901580 
H    -2.6229682    2.9342917   -0.2565648 
H     5.9909889   -1.3077103    0.0846395 
H    -2.3716682   -4.8482135   -0.1379367 
H    -3.5936211    3.1403644   -4.8558637 
H     2.1337023    4.4765391   -0.3247690 
H     4.4085533   -4.1938622    2.8945987 
H    -1.3426544   -3.9665144    3.9753622 
H    -3.3138228   -1.1615644   -5.2538665 
H    -2.0566397    5.2572777    0.4488298 
H     6.3662335   -3.1144714    1.7732672 
H    -2.6577816   -5.2881840    2.3068743 
H    -4.1582573    1.0414596   -6.0936628 
H     0.3232511    6.0276821    0.4328103 
