115
Energy =
C     1.1271052   -0.1335692   -3.9262489 
C     2.2654166   -0.8658703   -3.4779762 
C     2.1418414   -2.1596592   -2.9230675 
H     3.2349931   -0.3557757   -3.4066635 
Pd    0.8801602   -0.6438009   -1.7642276 
P     1.0642639   -1.2952362    0.4744328 
P    -0.9660985    0.7315529   -1.3392778 
H     0.2837544   -0.7092467   -4.3321028 
H     1.2073155   -2.7101826   -3.1175977 
C     1.2075262    3.9873719   -5.1771912 
C     2.1934760    3.5067436   -4.2985197 
C     2.1810484    2.1706212   -3.8887885 
C     1.1823506    1.2795607   -4.3487573 
C     0.2001529    1.7769228   -5.2331473 
C     0.2130721    3.1159062   -5.6431754 
H     1.2169416    5.0352888   -5.4943251 
H     2.9714136    4.1816899   -3.9261664 
H     2.9452733    1.8184249   -3.1866391 
H    -0.5829229    1.1029511   -5.5968614 
H    -0.5608856    3.4787266   -6.3276401 
C     5.3804252   -4.6146031   -1.5252600 
C     4.0586837   -4.8866363   -1.1371403 
C     3.0123530   -4.0849446   -1.6012113 
C     3.2659460   -2.9831139   -2.4502778 
C     4.6009467   -2.7229938   -2.8359528 
C     5.6459520   -3.5347323   -2.3808389 
H     6.1994046   -5.2464755   -1.1665920 
H     3.8451757   -5.7243183   -0.4656769 
H     1.9833778   -4.2916823   -1.2852083 
H     4.8214086   -1.8991859   -3.5227026 
H     6.6724750   -3.3280839   -2.7012106 
O    -1.8524784    2.3325705    2.7897550 
O    -2.1257578   -0.4958862    3.5609740 
N     0.3773812    3.7327409    3.8221120 
N    -4.5673405   -1.7242313    2.8898221 
C    -0.4511806    0.7152498    1.7911421 
C    -1.7113598    0.0725333    1.3011801 
C    -0.5779890    1.8905205    2.5543624 
C    -2.5530412   -0.5118871    2.2579979 
C     0.5616727    2.5815491    3.0659970 
C    -3.7816298   -1.1484288    1.9071240 
C     0.8444147    0.1766004    1.5509742 
C    -2.1016957    0.0600549   -0.0681956 
C    -0.9410482    3.8985735    4.4219919 
C    -4.0565124   -1.7881290    4.2540455 
C    -1.9935938    3.6428126    3.3513508 
C    -3.1839130   -0.5672810    4.5217625 
C     1.8332898    2.0358607    2.7876868 
C    -4.1375062   -1.1517344    0.5395091 
C     1.9700027    0.8594604    2.0470112 
C    -3.3192539   -0.5515152   -0.4200727 
C     1.5138951    4.3880611    4.4495066 
C    -5.7136904   -2.5454938    2.5313338 
C     2.7354304   -1.9298876    0.9085771 
C    -0.1280560   -2.5518119    1.0755582 
C    -2.0051486    0.8812275   -2.8518649 
C    -0.5732389    2.4338691   -0.7908662 
C     3.8425854   -1.3378650    0.2640858 
C    -0.3092496   -2.7852819    2.4544563 
C    -2.4674074    2.1101640   -3.3567731 
C     0.7690544    2.8520135   -0.7568549 
C     2.9546340   -2.9634251    1.8397289 
C    -0.8769619   -3.2901253    0.1390422 
C    -2.3086172   -0.3076239   -3.5532818 
C    -1.5950398    3.3182893   -0.3861829 
C     5.1453504   -1.7464530    0.5717706 
C    -1.2088239   -3.7687067    2.8833037 
C    -3.2416995    2.1452746   -4.5271759 
C     1.0916702    4.1471413   -0.3308653 
C     4.2605742   -3.3759908    2.1381115 
C    -1.7931447   -4.2574418    0.5745081 
C    -3.0853092   -0.2693789   -4.7177272 
C    -1.2688928    4.6224453    0.0072868 
C     5.3566244   -2.7664293    1.5113742 
C    -1.9538045   -4.5025088    1.9466393 
C    -3.5568037    0.9607797   -5.2062379 
C     0.0733591    5.0358620    0.0418621 
H    -1.0945446    3.2107855    5.2818139 
H    -1.0414111    4.9326219    4.7927647 
H    -4.9082800   -1.7934868    4.9577550 
H    -3.4678345   -2.7119659    4.4283736 
H    -3.0125460    3.6820694    3.7675528 
H    -1.8968687    4.3944702    2.5475705 
H    -3.7848456    0.3614239    4.4737814 
H    -2.6988127   -0.6351861    5.5072254 
H     2.7310069    2.5201310    3.1781969 
H    -5.0675194   -1.6247181    0.2167165 
H     2.9738346    0.4598400    1.8809008 
H    -3.6509923   -0.5599002   -1.4611009 
H     1.1702556    5.3294688    4.9060470 
H     2.2780694    4.6358438    3.6927049 
H     1.9894150    3.7672612    5.2381516 
H    -6.2147246   -2.8759885    3.4537001 
H    -5.4170751   -3.4429668    1.9508338 
H    -6.4443574   -1.9701712    1.9343171 
H     3.6756260   -0.5604398   -0.4916175 
H     0.2263137   -2.1742200    3.1878934 
H    -2.2091459    3.0457361   -2.8536481 
H     1.5563924    2.1481044   -1.0453270 
H     2.1098118   -3.4584388    2.3262809 
H    -0.7530679   -3.0846840   -0.9308599 
H    -1.9304256   -1.2684398   -3.1820084 
H    -2.6369134    2.9810170   -0.3688018 
H     5.9951236   -1.2834932    0.0607298 
H    -1.3362773   -3.9543506    3.9550627 
H    -3.5895946    3.1090834   -4.9130267 
H     2.1395206    4.4618339   -0.2930737 
H     4.4198712   -4.1827195    2.8612745 
H    -2.3831941   -4.8183510   -0.1575539 
H    -3.3182204   -1.1986358   -5.2480291 
H    -2.0647308    5.3193537    0.2916292 
H     6.3748829   -3.0952734    1.7430393 
H    -2.6647055   -5.2631228    2.2869274 
H    -4.1597373    0.9934079   -6.1195525 
H     0.3236047    6.0523133    0.3635222 
