115
Energy =
C    -1.5282191    3.8270892   -0.5852889 
C    -2.6022815    3.0501179   -1.0798210 
C    -3.5075285    2.4048674   -0.1867881 
H    -2.6726599    2.8403242   -2.1555685 
Pd   -1.4082528    1.6520414    0.1122296 
P    -1.6516433   -0.5525508    0.8611525 
P     0.9435540    1.4257403    0.0009316 
H    -1.6276944    4.2125377    0.4413768 
H    -3.6733390    2.8890762    0.7877255 
C     1.3541835    5.9957827   -2.9290680 
C     1.0271629    6.4064167   -1.6286282 
C     0.0968638    5.6810221   -0.8760402 
C    -0.5380226    4.5381755   -1.4118235 
C    -0.2056588    4.1424550   -2.7277139 
C     0.7342931    4.8589969   -3.4741134 
H     2.0886485    6.5566702   -3.5163547 
H     1.5044322    7.2902527   -1.1936183 
H    -0.1446227    5.9999668    0.1431473 
H    -0.6764637    3.2607243   -3.1699863 
H     0.9854235    4.5286053   -4.4874334 
C    -6.7215038   -0.1189044   -1.5381542 
C    -5.4490637   -0.2313589   -2.1231341 
C    -4.4039895    0.5929994   -1.6957279 
C    -4.6043121    1.5392464   -0.6654849 
C    -5.8872221    1.6413477   -0.0864814 
C    -6.9380004    0.8258854   -0.5249420 
H    -7.5379560   -0.7687599   -1.8690690 
H    -5.2709885   -0.9738259   -2.9083859 
H    -3.4049268    0.4820714   -2.1340364 
H    -6.0590977    2.3688124    0.7150323 
H    -7.9277341    0.9213687   -0.0663096 
O     1.7875776   -3.4403703    1.5399279 
O     2.7535705   -2.4791684   -1.1390282 
N     3.3865348   -2.6813275    3.7473102 
N     1.4830375   -3.4073420   -3.4785167 
C     1.5140507   -1.1887667    0.8962026 
C     0.7041367   -1.6965839   -0.2544006 
C     2.0672064   -2.1226075    1.7848590 
C     1.3992634   -2.3404101   -1.2916151 
C     2.8794310   -1.7174965    2.8875085 
C     0.7509511   -2.7790258   -2.4847266 
C     1.7749965    0.1982769    1.0818479 
C    -0.7000970   -1.5126722   -0.3690136 
C     3.4291851   -4.0467173    3.2374768 
C     2.9369335   -3.4284155   -3.3639462 
C     2.0870238   -4.3670500    2.5910260 
C     3.3236339   -3.5523436   -1.8948981 
C     3.1351703   -0.3369430    3.0354756 
C    -0.6359182   -2.5239046   -2.5967199 
C     2.5888879    0.6007382    2.1554096 
C    -1.3410573   -1.9063538   -1.5619561 
C     4.2926086   -2.3068196    4.8211160 
C     0.8871282   -3.6690420   -4.7791769 
C     1.7844853    3.0078847    0.4113867 
C     1.4653182    0.9452957   -1.6953173 
C    -3.2996323   -1.3608746    0.9907699 
C    -0.9876494   -0.9184284    2.5422762 
C     2.8043534    3.5782452   -0.3706811 
C     2.8160119    0.6492182   -1.9725437 
C    -4.3132542   -0.6394946    1.6504542 
C    -0.5222238    0.1247581    3.3608130 
C     1.3724884    3.6612640    1.5935574 
C     0.5038568    0.8232909   -2.7155920 
C    -3.5429415   -2.6937031    0.5986590 
C    -1.0214448   -2.2363211    3.0428661 
C     3.4250463    4.7660096    0.0440188 
C     3.1998393    0.2892631   -3.2704248 
C    -5.5566950   -1.2321373    1.8995102 
C    -0.0657531   -0.1462080    4.6588906 
C     2.0047510    4.8389889    2.0109311 
C     0.8886472    0.4437375   -4.0079716 
C    -4.7924777   -3.2796606    0.8437802 
C    -0.5785502   -2.4998722    4.3441084 
C     3.0392227    5.3901069    1.2380982 
C     2.2390595    0.1903666   -4.2899561 
C    -5.8016974   -2.5507040    1.4895276 
C    -0.0928394   -1.4578770    5.1513938 
H     4.2498067   -4.1881682    2.5012400 
H     3.6048094   -4.7396875    4.0776098 
H     3.3283691   -4.2967738   -3.9232877 
H     3.3933205   -2.5123159   -3.7913736 
H     2.0934488   -5.3626957    2.1206066 
H     1.2863076   -4.3271662    3.3514700 
H     2.9766062   -4.5179019   -1.4788157 
H     4.4134319   -3.4721393   -1.7643728 
H     3.7795093    0.0130216    3.8449066 
H    -1.1714050   -2.8042065   -3.5063130 
H     2.8166370    1.6582558    2.3103454 
H    -2.4128761   -1.7282864   -1.6914505 
H     4.4777179   -3.1906767    5.4513279 
H     3.8334884   -1.5269832    5.4532205 
H     5.2685287   -1.9285772    4.4502866 
H    -0.0259929   -4.2823200   -4.6784181 
H     1.6073863   -4.2330891   -5.3912022 
H     0.6246123   -2.7342885   -5.3170818 
H     3.1052149    3.1122969   -1.3128679 
H     3.5584187    0.6784090   -1.1683480 
H    -4.1229917    0.3903309    1.9709856 
H    -0.5045760    1.1486074    2.9701591 
H     0.5535233    3.2402078    2.1897942 
H    -0.5518843    0.9966851   -2.4779468 
H    -2.7577767   -3.2784343    0.1101938 
H    -1.3932782   -3.0523967    2.4152453 
H     4.2098914    5.2079987   -0.5782426 
H     4.2520430    0.0724417   -3.4833935 
H    -6.3392552   -0.6583492    2.4057075 
H     0.3080992    0.6703535    5.2849660 
H     1.6849156    5.3310664    2.9354576 
H     0.1318303    0.3389775   -4.7923253 
H    -4.9740671   -4.3141650    0.5335882 
H    -0.6219724   -3.5215985    4.7365620 
H     3.5319592    6.3135203    1.5596639 
H     2.5425143   -0.0975954   -5.3022859 
H    -6.7775306   -3.0108799    1.6763229 
H     0.2556594   -1.6694751    6.1677256 
