115
Energy =
C     1.1502768   -0.1365296   -3.9190964 
C     2.2992937   -0.8452171   -3.4603981 
C     2.1963816   -2.1376715   -2.8981739 
H     3.2590408   -0.3170809   -3.3871725 
Pd    0.9010863   -0.6383740   -1.7552232 
P     1.0849961   -1.2728482    0.4882406 
P    -0.9726343    0.7052638   -1.3487090 
H     0.3196224   -0.7299805   -4.3255427 
H     1.2730559   -2.7062663   -3.0942515 
C     1.1608242    3.9778655   -5.1938341 
C     2.1517839    3.5203967   -4.3084561 
C     2.1622276    2.1865648   -3.8912626 
C     1.1818807    1.2747629   -4.3500513 
C     0.1946052    1.7489049   -5.2415285 
C     0.1847110    3.0855628   -5.6591797 
H     1.1520541    5.0240878   -5.5165466 
H     2.9154306    4.2116821   -3.9364916 
H     2.9299708    1.8524083   -3.1841420 
H    -0.5742502    1.0585526   -5.6048268 
H    -0.5926241    3.4301333   -6.3492338 
C     5.4714974   -4.5251664   -1.4690129 
C     4.1527779   -4.8194298   -1.0868686 
C     3.0945615   -4.0395505   -1.5610805 
C     3.3327198   -2.9376811   -2.4145698 
C     4.6649152   -2.6550195   -2.7940445 
C     5.7220247   -3.4450566   -2.3288070 
H     6.2998807   -5.1399688   -1.1023685 
H     3.9508700   -5.6572878   -0.4120438 
H     2.0677474   -4.2636049   -1.2498803 
H     4.8741787   -1.8308271   -3.4838316 
H     6.7463981   -3.2212381   -2.6445070 
O    -1.9079444    2.3171148    2.7647911 
O    -2.1334308   -0.5113154    3.5538620 
N     0.2911070    3.7647715    3.7977327 
N    -4.5480772   -1.7899734    2.8790389 
C    -0.4727272    0.7188784    1.7839049 
C    -1.7187057    0.0501747    1.2924163 
C    -0.6244969    1.8967644    2.5384682 
C    -2.5539834   -0.5437056    2.2490262 
C     0.4999755    2.6119713    3.0504708 
C    -3.7686704   -1.2054979    1.8964276 
C     0.8335255    0.2021093    1.5535840 
C    -2.1020563    0.0215022   -0.0786899 
C    -1.0328872    3.9102149    4.3906257 
C    -4.0428405   -1.8354845    4.2460798 
C    -2.0755476    3.6282813    3.3169201 
C    -3.1947142   -0.5967260    4.5101111 
C     1.7825795    2.0876063    2.7817607 
C    -4.1179251   -1.2239919    0.5272340 
C     1.9441435    0.9086573    2.0501518 
C    -3.3063595   -0.6147715   -0.4323602 
C     1.4124948    4.4449572    4.4258832 
C    -5.6761742   -2.6359875    2.5201876 
C     2.7646882   -1.8752478    0.9352938 
C    -0.0880853   -2.5463945    1.0915789 
C    -2.0065685    0.8247434   -2.8675097 
C    -0.6148336    2.4184868   -0.8103792 
C     3.8648631   -1.2667140    0.2941865 
C    -0.2709574   -2.7752305    2.4710444 
C    -2.4896608    2.0410948   -3.3832851 
C    -1.6554127    3.2858021   -0.4166383 
C     2.9970074   -2.9003697    1.8725751 
C    -0.8201450   -3.3028596    0.1562363 
C    -2.2837083   -0.3745356   -3.5620170 
C     0.7189856    2.8626950   -0.7731415 
C     5.1729188   -1.6504353    0.6112890 
C    -1.1550499   -3.7717735    2.9018046 
C    -3.2584552    2.0532592   -4.5577757 
C    -1.3563730    4.5987354   -0.0308811 
C     4.3083702   -3.2880612    2.1804339 
C    -1.7214133   -4.2833082    0.5934702 
C    -3.0551417   -0.3592530   -4.7304745 
C     1.0145018    4.1667688   -0.3548179 
C     5.3969827   -2.6619100    1.5571166 
C    -1.8834714   -4.5234805    1.9662999 
C    -3.5474845    0.8582546   -5.2299970 
C    -0.0225092    5.0382223    0.0069640 
H    -1.1777156    3.2252581    5.2542152 
H    -1.1538920    4.9446156    4.7541906 
H    -4.8978173   -1.8524299    4.9457186 
H    -3.4377497   -2.7469207    4.4292316 
H    -3.0970117    3.6517023    3.7281415 
H    -1.9887056    4.3762119    2.5085522 
H    -3.8128199    0.3201344    4.4534244 
H    -2.7131514   -0.6492763    5.4982471 
H     2.6695166    2.5909346    3.1728140 
H    -5.0374590   -1.7161958    0.2031447 
H     2.9557930    0.5259397    1.8919596 
H    -3.6327732   -0.6360674   -1.4748870 
H     2.1753748    4.7020883    3.6708877 
H     1.8958653    3.8380093    5.2205219 
H     1.0494340    5.3826654    4.8749291 
H    -6.4151610   -2.0789918    1.9160819 
H    -6.1751250   -2.9707167    3.4421654 
H    -5.3589003   -3.5309355    1.9467261 
H     3.6885639   -0.4960646   -0.4663534 
H     0.2509081   -2.1509176    3.2032086 
H    -2.2520275    2.9848772   -2.8853459 
H    -2.6906423    2.9285455   -0.4017421 
H     2.1584370   -3.4082245    2.3566956 
H    -0.6951700   -3.1014987   -0.9143118 
H    -1.8888989   -1.3252694   -3.1822382 
H     1.5211445    2.1722365   -1.0530329 
H     6.0172149   -1.1747310    0.1028816 
H    -1.2834731   -3.9538281    3.9740684 
H    -3.6226847    3.0075311   -4.9521618 
H    -2.1668498    5.2820742    0.2448872 
H     4.4778333   -4.0884762    2.9082889 
H    -2.2988273   -4.8582392   -0.1377895 
H    -3.2678125   -1.2964868   -5.2552232 
H     2.0558900    4.5019558   -0.3145170 
H     6.4196128   -2.9712417    1.7963033 
H    -2.5827008   -5.2942054    2.3080189 
H    -4.1464388    0.8729732   -6.1463932 
H     0.2065817    6.0615380    0.3225832 
