115
Energy =
C    -1.5273469    3.8314251   -0.5668385 
C    -2.6053609    3.0604560   -1.0628956 
C    -3.5052324    2.4085675   -0.1695974 
H    -2.6824356    2.8607438   -2.1400963 
Pd   -1.4037487    1.6517209    0.1083827 
P    -1.6396399   -0.5609498    0.8327513 
P     0.9517806    1.4413501    0.0074595 
H    -1.6223447    4.2098202    0.4628549 
H    -3.6601228    2.8829502    0.8115803 
C     1.3418116    6.0161406   -2.9115053 
C     1.0110916    6.4267666   -1.6120115 
C     0.0858285    5.6958876   -0.8583816 
C    -0.5407400    4.5480884   -1.3929760 
C    -0.2044161    4.1517830   -2.7076316 
C     0.7309193    4.8735385   -3.4547810 
H     2.0721459    6.5816008   -3.4995816 
H     1.4826741    7.3141532   -1.1779505 
H    -0.1575014    6.0139265    0.1606935 
H    -0.6677479    3.2647189   -3.1472597 
H     0.9855438    4.5427085   -4.4670853 
C    -6.7456816   -0.0833343   -1.5159272 
C    -5.4791870   -0.1983627   -2.1131090 
C    -4.4250382    0.6150091   -1.6869489 
C    -4.6103611    1.5526628   -0.6461753 
C    -5.8873496    1.6569772   -0.0543815 
C    -6.9472037    0.8526909   -0.4915016 
H    -7.5691958   -0.7246305   -1.8460356 
H    -5.3129304   -0.9342558   -2.9070488 
H    -3.4305616    0.5023813   -2.1350680 
H    -6.0473871    2.3778103    0.7555363 
H    -7.9321934    0.9498067   -0.0230856 
O     1.7562809   -3.4324179    1.5348626 
O     2.7712115   -2.5026648   -1.1314343 
N     3.3688856   -2.6935981    3.7377056 
N     1.5176762   -3.4003114   -3.4999300 
C     1.5228570   -1.1827370    0.8790002 
C     0.7269739   -1.6845887   -0.2845716 
C     2.0576638   -2.1204512    1.7754098 
C     1.4295600   -2.3260930   -1.3230435 
C     2.8690572   -1.7223831    2.8814635 
C     0.7770155   -2.7564446   -2.5174105 
C     1.7837487    0.2033334    1.0755374 
C    -0.6754523   -1.4959723   -0.4088496 
C     3.4189657   -4.0517707    3.2088156 
C     2.7755821   -3.9938457   -3.0618641 
C     2.0748941   -4.3729611    2.5670570 
C     3.5409257   -2.9560730   -2.2505440 
C     3.1311634   -0.3441197    3.0350512 
C    -0.6054823   -2.4929443   -2.6387973 
C     2.5904510    0.5990238    2.1571345 
C    -1.3127392   -1.8661003   -1.6106821 
C     4.2752229   -2.3285595    4.8144867 
C     0.8628837   -3.9343791   -4.6829199 
C     1.7641668    3.0281176    0.4589413 
C     1.4972681    0.9998463   -1.6905527 
C    -3.2831874   -1.3816193    0.9390345 
C    -0.9864458   -0.9430318    2.5137823 
C     1.3252935    3.6499185    1.6487321 
C     2.8603736    0.7658150   -1.9683132 
C    -4.3022612   -0.6784523    1.6101480 
C    -0.5210731    0.0920046    3.3428364 
C     2.7807695    3.6356950   -0.2990450 
C     0.5446131    0.8477012   -2.7142154 
C    -3.5197996   -2.7064313    0.5171907 
C    -1.0294182   -2.2644321    3.0044427 
C     1.9273694    4.8320427    2.0968507 
C     3.2618978    0.4448646   -3.2716972 
C    -5.5444133   -1.2808142    1.8411030 
C    -0.0726064   -0.1905867    4.6410287 
C     3.3723519    4.8271412    0.1469903 
C     0.9468474    0.4941608   -4.0090003 
C    -4.7681311   -3.3021951    0.7446029 
C    -0.5951398   -2.5393963    4.3062331 
C     2.9594825    5.4197156    1.3479394 
C     2.3069599    0.3066330   -4.2927408 
C    -5.7827420   -2.5911694    1.4016634 
C    -0.1085848   -1.5057902    5.1236435 
H     4.2355486   -4.1758819    2.4650777 
H     3.6050657   -4.7549282    4.0380076 
H     2.6113961   -4.9095696   -2.4538870 
H     3.3696936   -4.2754342   -3.9474237 
H     2.0865197   -5.3607570    2.0801017 
H     1.2804824   -4.3535597    3.3349594 
H     4.4666906   -3.3763400   -1.8269315 
H     3.7909092   -2.0919021   -2.8921269 
H     3.7725639    0.0003034    3.8492098 
H    -1.1402202   -2.7936405   -3.5424936 
H     2.8172226    1.6556036    2.3196674 
H    -2.3833726   -1.6835033   -1.7429316 
H     4.4569198   -3.2167611    5.4395993 
H     3.8177191   -1.5511607    5.4506538 
H     5.2527764   -1.9509454    4.4470106 
H     0.3036432   -3.1377588   -5.2039311 
H     0.1596740   -4.7621377   -4.4509391 
H     1.6332928   -4.3139637   -5.3719314 
H     0.5081698    3.2007789    2.2266506 
H     3.6002458    0.8210994   -1.1629051 
H    -4.1172646    0.3447971    1.9539068 
H    -0.4976879    1.1186414    2.9602616 
H     3.1003912    3.1982636   -1.2485528 
H    -0.5178883    0.9765934   -2.4779220 
H    -2.7302124   -3.2776356    0.0200051 
H    -1.4024286   -3.0739701    2.3692552 
H     1.5866043    5.2983589    3.0272280 
H     4.3245944    0.2939112   -3.4901696 
H    -6.3313286   -0.7207593    2.3557674 
H     0.3021057    0.6195207    5.2749006 
H     4.1549190    5.2974139   -0.4571179 
H     0.1957495    0.3612573   -4.7945278 
H    -4.9446048   -4.3303421    0.4111717 
H    -0.6455860   -3.5637232    4.6909359 
H     3.4285788    6.3468350    1.6932802 
H     2.6243529    0.0410633   -5.3065856 
H    -6.7573876   -3.0590763    1.5749445 
H     0.2331473   -1.7265209    6.1403211 
