115
Energy =
C    -1.4337124    3.7741416   -0.5100314 
C    -2.7315527    3.1841658   -0.5018353 
C    -3.2623890    2.5752761    0.6578483 
H    -3.2634424    3.0495571   -1.4527139 
Pd   -1.2711921    1.6192309    0.0663045 
P    -1.5389103   -0.6595291    0.5249328 
P     1.0571403    1.4351188   -0.0886959 
H    -1.0771030    4.2245451    0.4265697 
H    -2.7962402    2.8259623    1.6243764 
C     0.5752996    5.2249736   -4.0337150 
C    -0.4313241    4.2520125   -4.1566577 
C    -1.0939701    3.7764147   -3.0217822 
C    -0.7683274    4.2633987   -1.7333915 
C     0.2426498    5.2438057   -1.6268443 
C     0.9069284    5.7190479   -2.7643247 
H     1.0960013    5.5934653   -4.9235604 
H    -0.6946154    3.8580427   -5.1440071 
H    -1.8616071    3.0025105   -3.1352136 
H     0.5103863    5.6313361   -0.6380437 
H     1.6893922    6.4773688   -2.6553808 
C    -7.1427052    0.7560123    0.9809873 
C    -6.1411878    0.4746750    1.9240888 
C    -4.8844380    1.0756091    1.8130335 
C    -4.5954297    1.9582303    0.7469268 
C    -5.6143566    2.2357102   -0.1929630 
C    -6.8763686    1.6433034   -0.0727356 
H    -8.1290049    0.2894708    1.0711881 
H    -6.3405752   -0.2205540    2.7457108 
H    -4.1007643    0.8427982    2.5431612 
H    -5.4297259    2.9446663   -1.0066653 
H    -7.6586459    1.8806442   -0.8013465 
O     1.9197510   -3.3967318    1.5809500 
O     3.1139384   -2.4395161   -0.9739028 
N     3.1740784   -2.5630803    3.9644608 
N     2.1204883   -3.5436069   -3.3737415 
C     1.6079115   -1.1550957    0.8861673 
C     0.9524013   -1.7173075   -0.3365204 
C     2.1047169   -2.0609792    1.8343765 
C     1.7744348   -2.3792238   -1.2622091 
C     2.7293206   -1.6297943    3.0435029 
C     1.2634388   -2.9251214   -2.4782380 
C     1.7729488    0.2420143    1.1042503 
C    -0.4468079   -1.6296498   -0.5851668 
C     2.8479324   -3.9674960    3.7502161 
C     3.5557429   -3.4491615   -3.1377206 
C     2.8450950   -4.2570877    2.2539549 
C     3.8175719   -3.4949212   -1.6371514 
C     2.8662908   -0.2366533    3.2375275 
C    -0.1263368   -2.8050449   -2.7052151 
C     2.4109004    0.6738539    2.2816959 
C    -0.9600287   -2.1840572   -1.7726509 
C     3.6232937   -2.1422593    5.2829153 
C     1.6556604   -3.9158705   -4.7010921 
C     1.8554805    3.0394114    0.3328729 
C     1.7075139    0.9356919   -1.7268817 
C    -3.2315732   -1.2771418    0.1534548 
C    -1.1610727   -1.2165214    2.2309642 
C     2.8610717    3.6306932   -0.4533615 
C     0.8246674    0.8425599   -2.8183106 
C    -3.9059618   -0.7026363   -0.9450360 
C    -0.9854062   -2.5836391    2.5296144 
C     1.3949367    3.7169213    1.4842521 
C     3.0722001    0.6237445   -1.8976974 
C    -3.8733173   -2.2804341    0.9050092 
C    -1.0471887   -0.2587916    3.2568236 
C     3.4123735    4.8663597   -0.0799696 
C     1.3019702    0.4513331   -4.0758220 
C    -5.1831129   -1.1471125   -1.3058439 
C    -0.7322460   -2.9828303    3.8475692 
C     1.9515185    4.9465684    1.8570027 
C     3.5474077    0.2535317   -3.1615837 
C    -5.1560753   -2.7165536    0.5455967 
C    -0.7692791   -0.6619095    4.5703272 
C     2.9653791    5.5237363    1.0740027 
C     2.6641233    0.1647150   -4.2500169 
C    -5.8103486   -2.1568038   -0.5608547 
C    -0.6202808   -2.0248032    4.8678276 
H     3.6117292   -4.5941641    4.2443653 
H     1.8613486   -4.2315383    4.1830059 
H     4.0573424   -4.3041533   -3.6248778 
H     3.9811402   -2.5166695   -3.5614380 
H     3.8576298   -4.1112410    1.8299980 
H     2.5102460   -5.2851591    2.0486023 
H     3.4984189   -4.4693219   -1.2185550 
H     4.8837063   -3.3359819   -1.4146911 
H     3.3402213    0.1451028    4.1443165 
H    -0.5670560   -3.2062152   -3.6203672 
H     2.5663011    1.7395599    2.4658807 
H    -2.0319111   -2.1355501   -1.9823935 
H     4.4718236   -1.4386575    5.2072748 
H     3.9661847   -3.0278007    5.8392467 
H     2.8137367   -1.6533765    5.8629687 
H     0.7987592   -4.6102612   -4.6399046 
H     2.4718498   -4.4314188   -5.2297607 
H     1.3496453   -3.0334029   -5.3003151 
H     3.2041002    3.1418404   -1.3693043 
H    -0.2377543    1.0592582   -2.6683565 
H    -3.4266657    0.1061474   -1.5104101 
H    -1.0149761   -3.3271212    1.7266168 
H     0.5931182    3.2757382    2.0895858 
H     3.7517530    0.6490750   -1.0394818 
H    -3.3823762   -2.7168348    1.7792239 
H    -1.1558667    0.8049642    3.0141002 
H     4.1893964    5.3194281   -0.7043451 
H     0.6090245    0.3704621   -4.9195620 
H    -5.6980667   -0.6890578   -2.1559172 
H    -0.6127510   -4.0470814    4.0766319 
H     1.5902294    5.4584626    2.7550399 
H     4.6098967    0.0232500   -3.2947024 
H    -5.6476462   -3.4947768    1.1387574 
H    -0.6681860    0.0884604    5.3611730 
H     3.3974359    6.4880996    1.3604518 
H     3.0387245   -0.1338910   -5.2351222 
H    -6.8145937   -2.4959996   -0.8348620 
H    -0.4116444   -2.3408845    5.8955589 
