115
Energy =
C    -1.5542955    3.8098473   -0.6308496 
C    -2.6290788    3.0197200   -1.1023875 
C    -3.5215073    2.3825936   -0.1907433 
H    -2.7090286    2.7933047   -2.1740986 
Pd   -1.4153578    1.6468003    0.0990776 
P    -1.6389854   -0.5463076    0.8870796 
P     0.9364620    1.4308106   -0.0329559 
H    -1.6451683    4.2104250    0.3908071 
H    -3.6812159    2.8806204    0.7778005 
C     1.2892516    5.9587264   -3.0393924 
C     0.9735136    6.3879486   -1.7421826 
C     0.0559433    5.6688677   -0.9682239 
C    -0.5767682    4.5133341   -1.4787129 
C    -0.2549393    4.0979939   -2.7911905 
C     0.6717834    4.8088878   -3.5592051 
H     2.0127629    6.5155624   -3.6438714 
H     1.4501616    7.2812253   -1.3262012 
H    -0.1772941    6.0029550    0.0480325 
H    -0.7235062    3.2054376   -3.2136959 
H     0.9144454    4.4638202   -4.5696870 
C    -6.7304983   -0.1831931   -1.4732326 
C    -5.4629210   -0.2955312   -2.0687200 
C    -4.4196152    0.5421336   -1.6634777 
C    -4.6168531    1.5023824   -0.6456424 
C    -5.8948176    1.6040925   -0.0557874 
C    -6.9438789    0.7747723   -0.4718180 
H    -7.5455670   -0.8432805   -1.7868692 
H    -5.2872273   -1.0480883   -2.8448543 
H    -3.4238859    0.4312181   -2.1093654 
H    -6.0641388    2.3420654    0.7366108 
H    -7.9296540    0.8697150   -0.0046376 
O     1.8218427   -3.4047315    1.5771005 
O     2.7547425   -2.4847946   -1.1266928 
N     3.4366466   -2.6011815    3.7570622 
N     1.4644483   -3.4590175   -3.4363750 
C     1.5299874   -1.1656256    0.8993251 
C     0.7108086   -1.6970933   -0.2339013 
C     2.0967574   -2.0816973    1.7978298 
C     1.3981853   -2.3553295   -1.2672191 
C     2.9168748   -1.6542623    2.8860833 
C     0.7395979   -2.8175901   -2.4456700 
C     1.7853072    0.2256446    1.0594183 
C    -0.6954980   -1.5222986   -0.3366858 
C     3.4819305   -3.9745882    3.2694203 
C     2.9195374   -3.4715226   -3.3365927 
C     2.1358867   -4.3125589    2.6402721 
C     3.3219443   -3.5683642   -1.8697047 
C     3.1663863   -0.2700884    3.0088995 
C    -0.6495410   -2.5706854   -2.5475803 
C     2.6071316    0.6499763    2.1184471 
C    -1.3468833   -1.9390210   -1.5160790 
C     4.3499989   -2.2043954    4.8166325 
C     0.8564787   -3.7454035   -4.7262122 
C     1.7737495    3.0238144    0.3412086 
C     1.4425899    0.9242672   -1.7263621 
C    -3.2810761   -1.3609143    1.0484860 
C    -0.9555810   -0.8797415    2.5671860 
C     2.7806290    3.5863757   -0.4630222 
C     2.7917080    0.6299634   -2.0129704 
C    -4.2914948   -0.6335018    1.7064516 
C    -0.4903107    0.1801816    3.3640220 
C     1.3724963    3.6950324    1.5170725 
C     0.4710195    0.7806766   -2.7342119 
C    -3.5210823   -2.7018131    0.6827301 
C    -0.9752738   -2.1893433    3.0898369 
C     3.3997444    4.7843081   -0.0762020 
C     3.1634436    0.2493334   -3.3084665 
C    -5.5284165   -1.2287766    1.9805182 
C    -0.0215410   -0.0657046    4.6627439 
C     2.0034148    4.8829437    1.9066661 
C     0.8438554    0.3804252   -4.0238474 
C    -4.7642145   -3.2904473    0.9526645 
C    -0.5201156   -2.4278577    4.3916726 
C     3.0250660    5.4265289    1.1117853 
C     2.1923509    0.1280738   -4.3157369 
C    -5.7701887   -2.5559197    1.5971909 
C    -0.0357346   -1.3689845    5.1775283 
H     4.2967560   -4.1240050    2.5283425 
H     3.6685533   -4.6526793    4.1192553 
H     3.3092526   -4.3475871   -3.8850183 
H     3.3672001   -2.5608339   -3.7843603 
H     2.1436668   -5.3156676    2.1859970 
H     1.3418182   -4.2647766    3.4072062 
H     2.9836962   -4.5281220   -1.4334421 
H     4.4126518   -3.4811204   -1.7519730 
H     3.8157539    0.0967386    3.8067634 
H    -1.1930114   -2.8688245   -3.4466953 
H     2.8312502    1.7110189    2.2532962 
H    -2.4207861   -1.7679054   -1.6373453 
H     3.8918534   -1.4174247    5.4405346 
H     5.3202211   -1.8262686    4.4310286 
H     4.5462061   -3.0771091    5.4589095 
H     1.5729539   -4.3167428   -5.3359166 
H     0.5843349   -2.8210812   -5.2771957 
H    -0.0528179   -4.3607833   -4.6057130 
H     3.0722154    3.1061467   -1.4009221 
H     3.5424904    0.6766086   -1.2174249 
H    -4.1037014    0.4030305    2.0061337 
H    -0.4832990    1.1974074    2.9561510 
H     0.5628138    3.2802011    2.1300458 
H    -0.5829464    0.9536798   -2.4884584 
H    -2.7379917   -3.2907823    0.1959873 
H    -1.3464010   -3.0184424    2.4790624 
H     4.1746269    5.2197091   -0.7153550 
H     4.2144219    0.0341795   -3.5290099 
H    -6.3087390   -0.6503645    2.4849180 
H     0.3518999    0.7637721    5.2718544 
H     1.6925299    5.3887102    2.8268451 
H     0.0793309    0.2590746   -4.7982686 
H    -4.9434666   -4.3311274    0.6624233 
H    -0.5526302   -3.4431871    4.8013813 
H     3.5162913    6.3580962    1.4113845 
H     2.4862660   -0.1771773   -5.3258108 
H    -6.7406920   -3.0186133    1.8044028 
H     0.3216983   -1.5608986    6.1946589 
