115
Energy =
C     1.3207741   -0.0469944   -3.9413944 
C     2.5433425   -0.2865788   -3.2708595 
C     2.8462074   -1.5772748   -2.7459975 
H     3.2154719    0.5523127   -3.0451003 
Pd    0.9994637   -0.7322280   -1.7802732 
P     0.9589598   -1.6423414    0.3752401 
P    -0.8964245    0.6091675   -1.3202555 
H     0.8055989   -0.9256550   -4.3595273 
H     2.4017169   -2.4401579   -3.2653872 
C     0.0600002    3.6562942   -5.7301805 
C    -0.4243856    2.4271653   -6.2005035 
C    -0.0121680    1.2331143   -5.5985863 
C     0.9034313    1.2401904   -4.5225135 
C     1.3916394    2.4862587   -4.0669774 
C     0.9694300    3.6797670   -4.6595741 
H    -0.2675862    4.5923978   -6.1941793 
H    -1.1337387    2.3968459   -7.0336362 
H    -0.4035521    0.2777179   -5.9629731 
H     2.0998624    2.5261623   -3.2353336 
H     1.3515006    4.6346470   -4.2837819 
C     6.4679828   -2.4272076   -0.5813735 
C     5.7462243   -1.2539843   -0.3049666 
C     4.5740039   -0.9676570   -1.0110152 
C     4.0910102   -1.8535457   -2.0003013 
C     4.8251162   -3.0292127   -2.2667512 
C     6.0074017   -3.3086122   -1.5699991 
H     7.3824669   -2.6539023   -0.0239201 
H     6.0952559   -0.5667809    0.4730750 
H     3.9969019   -0.0662089   -0.7721289 
H     4.4633754   -3.7279553   -3.0297044 
H     6.5662683   -4.2235568   -1.7927217 
O    -1.5228808    2.2635050    2.7657476 
O    -2.0866179   -0.5776975    3.5719611 
N     0.8708171    3.4988058    3.5966783 
N    -4.6738833   -1.5252319    2.9277173 
C    -0.3352719    0.4785762    1.7659912 
C    -1.6714337   -0.0231604    1.3184420 
C    -0.3136885    1.6801213    2.4934928 
C    -2.5477777   -0.5412572    2.2833102 
C     0.9047965    2.3126293    2.8826969 
C    -3.8530638   -1.0058757    1.9367965 
C     0.8922529   -0.1598108    1.4427983 
C    -2.0893342    0.0579722   -0.0398595 
C    -0.4114047    4.1730497    3.7669564 
C    -4.3367679   -1.1692436    4.3009515 
C    -1.5137214    3.1295320    3.9050395 
C    -2.8392665   -1.3668127    4.5015141 
C     2.1109489    1.6872453    2.4886524 
C    -4.2457090   -0.8969704    0.5850671 
C     2.1009969    0.4804973    1.7865956 
C    -3.3796965   -0.3823829   -0.3831488 
C     2.0894553    4.2614643    3.8172574 
C    -6.0400424   -1.9179500    2.6216054 
C     2.3325512   -2.6843545    1.0182613 
C    -0.4766637   -2.7277886    0.7756010 
C    -1.9366582    0.8189869   -2.8213179 
C    -0.3884345    2.2846399   -0.7599253 
C     2.7718772   -3.7384596    0.1940430 
C    -1.3892812   -3.0928017   -0.2287443 
C    -2.4231778    2.0595909   -3.2699111 
C    -1.3518014    3.2185268   -0.3253235 
C     2.8547957   -2.5634818    2.3228545 
C    -0.6171697   -3.2605611    2.0736240 
C    -2.2635624   -0.3523395   -3.5392942 
C     0.9764965    2.6237081   -0.7171005 
C     3.7314845   -4.6463784    0.6565994 
C    -2.4521644   -3.9594692    0.0641862 
C    -3.2511260    2.1210647   -4.4008957 
C    -0.9496434    4.4927644    0.0940331 
C     3.8208839   -3.4713930    2.7785135 
C    -1.6706682   -4.1370850    2.3576469 
C    -3.1018486   -0.2879616   -4.6592446 
C     1.3764262    3.8924051   -0.2779090 
C     4.2642158   -4.5098990    1.9468561 
C    -2.5941949   -4.4818503    1.3568285 
C    -3.6028022    0.9514786   -5.0885587 
C     0.4128034    4.8329267    0.1145644 
H    -0.3726603    4.7923920    4.6807923 
H    -0.6382643    4.8406542    2.9106836 
H    -4.6172194   -0.1200282    4.5371442 
H    -4.8883114   -1.8306648    4.9903556 
H    -1.3693037    2.5264488    4.8222749 
H    -2.5061906    3.6040357    3.9355582 
H    -2.5196423   -1.0376538    5.5025445 
H    -2.5813664   -2.4330268    4.3677102 
H     3.0703333    2.1520854    2.7255571 
H    -5.2475150   -1.2099354    0.2829652 
H     3.0576341    0.0326155    1.5010215 
H    -3.7296093   -0.3167197   -1.4163382 
H     1.8549287    5.1257476    4.4571416 
H     2.5286928    4.6350402    2.8688476 
H     2.8488019    3.6503084    4.3369128 
H    -6.6850976   -1.0571981    2.3460125 
H    -6.4730201   -2.4090528    3.5070035 
H    -6.0513606   -2.6429763    1.7893302 
H     2.3565727   -3.8463996   -0.8135147 
H    -1.2721852   -2.6813873   -1.2377826 
H    -2.1440233    2.9824414   -2.7543694 
H    -2.4097948    2.9383151   -0.2931930 
H     2.5034069   -1.7689466    2.9879507 
H     0.0969006   -2.9901818    2.8579440 
H    -1.8589865   -1.3188693   -3.2145892 
H     1.7225052    1.8722248   -0.9998902 
H     4.0717681   -5.4555155    0.0029783 
H    -3.1671075   -4.2271943   -0.7204695 
H    -3.6150430    3.0932614   -4.7486493 
H    -1.7027001    5.2188757    0.4183657 
H     4.2234172   -3.3683540    3.7917872 
H    -1.7674725   -4.5630931    3.3621210 
H    -3.3583703   -1.2041448   -5.2014247 
H     2.4415184    4.1428325   -0.2358113 
H     5.0211870   -5.2152683    2.3051519 
H    -3.4187382   -5.1655281    1.5845613 
H    -4.2538727    1.0053040   -5.9672589 
H     0.7235912    5.8280951    0.4505259 
