115
Energy =
C    -1.4248572    3.7762576   -0.5252387 
C    -2.7247719    3.1918922   -0.5457855 
C    -3.2828790    2.5857021    0.6026675 
H    -3.2367986    3.0600544   -1.5078621 
Pd   -1.2856144    1.6193285    0.0545858 
P    -1.5692591   -0.6565744    0.5168169 
P     1.0454952    1.4259415   -0.0494757 
H    -1.0861698    4.2225670    0.4199456 
H    -2.8360396    2.8357652    1.5783998 
C     0.6698530    5.2257982   -3.9989304 
C    -0.3421801    4.2621355   -4.1478418 
C    -1.0325887    3.7867572   -3.0295377 
C    -0.7301201    4.2648716   -1.7322363 
C     0.2864144    5.2363857   -1.5996188 
C     0.9787136    5.7111456   -2.7204346 
H     1.2123706    5.5939563   -4.8757889 
H    -0.5880426    3.8753133   -5.1424777 
H    -1.8042930    3.0201726   -3.1631433 
H     0.5357994    5.6175015   -0.6035491 
H     1.7651989    6.4621260   -2.5913323 
C    -7.1821768    0.7966196    0.8564100 
C    -6.2025550    0.5147146    1.8220712 
C    -4.9390605    1.1049305    1.7324193 
C    -4.6212437    1.9773768    0.6660701 
C    -5.6180909    2.2548500   -0.2972196 
C    -6.8868925    1.6730601   -0.1987121 
H    -8.1740224    0.3390047    0.9300797 
H    -6.4243515   -0.1726033    2.6445851 
H    -4.1723854    0.8719605    2.4803101 
H    -5.4112305    2.9559590   -1.1123711 
H    -7.6518904    1.9103151   -0.9454730 
O     1.9247348   -3.4206210    1.5400226 
O     3.0973358   -2.4068617   -0.9682531 
N     3.1914896   -2.6265618    3.9393958 
N     2.1163907   -3.5420408   -3.3546837 
C     1.5791217   -1.1729059    0.9089061 
C     0.9286782   -1.7176962   -0.3241266 
C     2.0784898   -2.0944579    1.8458792 
C     1.7573265   -2.3664744   -1.2527053 
C     2.7139590   -1.6700811    3.0512439 
C     1.2531859   -2.9222698   -2.4669787 
C     1.7401051    0.2203588    1.1465560 
C    -0.4699657   -1.6339074   -0.5786140 
C     3.4477430   -3.9456754    3.3732053 
C     3.5508860   -3.4533579   -3.1092040 
C     2.2272630   -4.3716741    2.5676378 
C     3.8039130   -3.4749984   -1.6061996 
C     2.8398568   -0.2809736    3.2673658 
C    -0.1364736   -2.8097801   -2.6980699 
C     2.3643340    0.6432683    2.3341121 
C    -0.9752197   -2.1892983   -1.7694397 
C     3.9370372   -2.2219526    5.1208011 
C     1.6589675   -3.9262661   -4.6811483 
C     1.8365284    3.0250244    0.4040196 
C     1.7255934    0.9401563   -1.6792622 
C    -3.2609056   -1.2688827    0.1319567 
C    -1.2162967   -1.1942384    2.2338243 
C     2.8626786    3.6201769   -0.3522380 
C     3.0928300    0.6293325   -1.8295697 
C    -3.9179453   -0.7023605   -0.9812152 
C    -1.1165434   -0.2202050    3.2449305 
C     1.3484837    3.6945676    1.5487149 
C     0.8605880    0.8538556   -2.7857476 
C    -3.9183356   -2.2601727    0.8858505 
C    -1.0626776   -2.5580868    2.5611663 
C     3.4060454    4.8522881    0.0438660 
C     3.5885408    0.2662076   -3.0876729 
C    -5.1924051   -1.1441901   -1.3544254 
C    -0.8748775   -0.6012648    4.5724811 
C     1.8968490    4.9209011    1.9440182 
C     1.3583665    0.4705008   -4.0374745 
C    -5.1985915   -2.6934122    0.5140716 
C    -0.8503784   -2.9346756    3.8934264 
C     2.9306052    5.5022874    1.1907203 
C     2.7232975    0.1843680   -4.1908251 
C    -5.8349077   -2.1425823   -0.6071892 
C    -0.7508366   -1.9590934    4.8986592 
H     4.3525642   -3.9502535    2.7272111 
H     3.6127251   -4.6650037    4.1928921 
H     4.0500229   -4.3193077   -3.5795133 
H     3.9845983   -2.5305950   -3.5459374 
H     2.3987124   -5.3284549    2.0495162 
H     1.3559784   -4.4732579    3.2391850 
H     3.4808235   -4.4399114   -1.1695489 
H     4.8690496   -3.3133201   -1.3812818 
H     3.3410035    0.0871827    4.1652496 
H    -0.5732927   -3.2148114   -3.6134493 
H     2.5148832    1.7071477    2.5318699 
H    -2.0461185   -2.1436420   -1.9845564 
H     4.1248582   -3.1120329    5.7414929 
H     3.3451656   -1.5081012    5.7191342 
H     4.9126057   -1.7509105    4.8760657 
H     0.8032220   -4.6220820   -4.6187509 
H     2.4788603   -4.4440594   -5.2018109 
H     1.3539514   -3.0493176   -5.2888261 
H     3.2277581    3.1375588   -1.2629638 
H     3.7581206    0.6478768   -0.9601616 
H    -3.4269928    0.0979174   -1.5486412 
H    -1.2099845    0.8398959    2.9803679 
H     0.5315422    3.2497967    2.1307625 
H    -0.2042794    1.0688942   -2.6515796 
H    -3.4417359   -2.6895617    1.7713408 
H    -1.0886247   -3.3154562    1.7705632 
H     4.1990586    5.3087944   -0.5574866 
H     4.6526250    0.0345012   -3.2043524 
H    -5.6935625   -0.6925653   -2.2160815 
H    -0.7852241    0.1628018    5.3515130 
H     1.5137714    5.4269100    2.8363416 
H     0.6793932    0.3946879   -4.8929611 
H    -5.7022159   -3.4625081    1.1090316 
H    -0.7607681   -3.9952533    4.1516589 
H     3.3560908    6.4642735    1.4944827 
H     3.1139351   -0.1085036   -5.1714161 
H    -6.8372133   -2.4794677   -0.8909629 
H    -0.5725023   -2.2594216    5.9364821 
