115
Energy =
C    -1.4212314    3.7954340   -0.5168201 
C    -2.7203614    3.2081073   -0.5197841 
C    -3.2600914    2.5984839    0.6353323 
H    -3.2455129    3.0770047   -1.4749238 
Pd   -1.2660360    1.6400435    0.0551290 
P    -1.5384556   -0.6374545    0.5112549 
P     1.0632394    1.4563447   -0.0932024 
H    -1.0715916    4.2439526    0.4233977 
H    -2.7989960    2.8464669    1.6049696 
C     0.6140268    5.2520407   -4.0224395 
C    -0.3786333    4.2657490   -4.1526954 
C    -1.0497155    3.7883120   -3.0236055 
C    -0.7460507    4.2862044   -1.7341205 
C     0.2519351    5.2787945   -1.6199331 
C     0.9240163    5.7567037   -2.7517477 
H     1.1411220    5.6223659   -4.9077543 
H    -0.6237693    3.8624895   -5.1409362 
H    -1.8060045    3.0039757   -3.1415684 
H     0.5033291    5.6735006   -0.6296424 
H     1.6959720    6.5249457   -2.6373654 
C    -7.1474579    0.7911149    0.9365820 
C    -6.1527411    0.5084467    1.8864489 
C    -4.8934178    1.1051643    1.7820280 
C    -4.5950443    1.9848408    0.7160308 
C    -5.6070667    2.2633336   -0.2310176 
C    -6.8716427    1.6751644   -0.1174590 
H    -8.1359156    0.3282166    1.0217952 
H    -6.3595216   -0.1844140    2.7082348 
H    -4.1150004    0.8716146    2.5175474 
H    -5.4151126    2.9699038   -1.0450925 
H    -7.6485562    1.9133195   -0.8515193 
O     1.8769632   -3.3794790    1.5854067 
O     3.0986429   -2.4857716   -0.9421758 
N     3.1777546   -2.5589645    3.9425517 
N     2.1019396   -3.6317352   -3.3280663 
C     1.6038868   -1.1387230    0.8740992 
C     0.9507004   -1.7037015   -0.3488795 
C     2.0892527   -2.0463024    1.8260917 
C     1.7714349   -2.3877343   -1.2645926 
C     2.7327251   -1.6213023    3.0274463 
C     1.2470149   -2.9593774   -2.4631732 
C     1.7803970    0.2574631    1.0918102 
C    -0.4469283   -1.6085935   -0.6017594 
C     2.8586493   -3.9648466    3.7237744 
C     3.3550080   -4.1023202   -2.7501480 
C     2.8202454   -4.2444354    2.2257726 
C     3.9833724   -2.9587621   -1.9647462 
C     2.8861498   -0.2295430    3.2183220 
C    -0.1384613   -2.8248610   -2.6968779 
C     2.4287920    0.6837129    2.2657640 
C    -0.9657189   -2.1645384   -1.7853717 
C     3.6498632   -2.1434776    5.2546392 
C     1.5721703   -4.3207444   -4.4940721 
C     1.8523576    3.0618004    0.3426795 
C     1.7153291    0.9690329   -1.7334573 
C    -3.2316722   -1.2523870    0.1381285 
C    -1.1602821   -1.1968953    2.2159863 
C     2.8504959    3.6725436   -0.4381177 
C     0.8266858    0.8388369   -2.8155635 
C    -3.9021786   -0.6803251   -0.9641103 
C    -1.0327678   -0.2388698    3.2401840 
C     1.3878902    3.7214954    1.5030051 
C     3.0891790    0.7063974   -1.9169899 
C    -3.8780981   -2.2506177    0.8924339 
C    -0.9927938   -2.5649431    2.5147498 
C     3.3922883    4.9078964   -0.0497165 
C     1.3047555    0.4577893   -4.0762377 
C    -5.1792807   -1.1234937   -1.3266700 
C    -0.7475871   -0.6427271    4.5517482 
C     1.9339722    4.9513700    1.8900059 
C     3.5658353    0.3578669   -3.1872172 
C    -5.1609797   -2.6850748    0.5314556 
C    -0.7310593   -2.9645961    3.8308780 
C     2.9419993    5.5468587    1.1131432 
C     2.6746447    0.2265875   -4.2653477 
C    -5.8108399   -2.1287034   -0.5792860 
C    -0.6043097   -2.0063839    4.8490679 
H     3.6391944   -4.5889476    4.1948825 
H     1.8851996   -4.2398361    4.1791193 
H     3.2014358   -4.9823395   -2.0883950 
H     4.0365214   -4.4044342   -3.5632397 
H     3.8196828   -4.0940776    1.7738306 
H     2.4810120   -5.2714945    2.0229151 
H     4.8986420   -3.2804131   -1.4433899 
H     4.2248401   -2.1259975   -2.6492463 
H     3.3724892    0.1492894    4.1198079 
H    -0.5856053   -3.2662798   -3.5902617 
H     2.5926441    1.7483122    2.4490737 
H    -2.0370507   -2.1101974   -1.9957248 
H     2.8551754   -1.6398183    5.8422310 
H     4.5094549   -1.4542853    5.1685904 
H     3.9831975   -3.0335997    5.8093332 
H     0.9212385   -5.1807378   -4.2291243 
H     2.4150750   -4.6936292   -5.0967952 
H     0.9895617   -3.6221657   -5.1190961 
H     3.1947638    3.2004011   -1.3621593 
H    -0.2415444    1.0170097   -2.6553977 
H    -3.4199548    0.1255796   -1.5310794 
H    -1.1360126    0.8253735    2.9972002 
H     0.5911800    3.2657948    2.1043488 
H     3.7766055    0.7635966   -1.0662727 
H    -3.3906931   -2.6844516    1.7698755 
H    -1.0327123   -3.3090819    1.7129755 
H     4.1638216    5.3755616   -0.6701090 
H     0.6059759    0.3445211   -4.9113321 
H    -5.6908960   -0.6677178   -2.1799663 
H    -0.6354860    0.1075659    5.3411660 
H     1.5694098    5.4488729    2.7947801 
H     4.6370403    0.1845127   -3.3369247 
H    -5.6561038   -3.4593840    1.1267799 
H    -0.6147687   -4.0292607    4.0595218 
H     3.3661989    6.5112557    1.4109744 
H     3.0508203   -0.0596345   -5.2531771 
H    -6.8151365   -2.4666738   -0.8545970 
H    -0.3883689   -2.3227803    5.8751915 
