115
Energy =
C     1.1944729   -0.0525508   -3.8934247 
C     2.3375490   -0.7768991   -3.4454377 
C     2.2275010   -2.0850323   -2.9216845 
H     3.2978235   -0.2537641   -3.3484490 
Pd    0.9263118   -0.6186906   -1.7456172 
P     1.0865450   -1.3224198    0.4798956 
P    -0.9521580    0.7091635   -1.3125936 
H     0.3649165   -0.6319316   -4.3215882 
H     1.3052718   -2.6461675   -3.1428531 
C     1.2198841    4.0969356   -5.0496752 
C     2.2168443    3.6078238   -4.1883357 
C     2.2226870    2.2625875   -3.8093745 
C     1.2318619    1.3702665   -4.2839159 
C     0.2392754    1.8761293   -5.1520026 
C     0.2334562    3.2243673   -5.5304433 
H     1.2149239    5.1519554   -5.3423969 
H     2.9894798    4.2830641   -3.8055740 
H     2.9961296    1.9040586   -3.1206867 
H    -0.5369710    1.2012571   -5.5283181 
H    -0.5485718    3.5933023   -6.2023346 
C     5.4866648   -4.5219451   -1.5400452 
C     4.1642416   -4.8256724   -1.1786804 
C     3.1113819   -4.0292989   -1.6370911 
C     3.3585782   -2.9015292   -2.4533809 
C     4.6944352   -2.6095465   -2.8123524 
C     5.7462645   -3.4157558   -2.3632000 
H     6.3109065   -5.1494721   -1.1858332 
H     3.9552248   -5.6839940   -0.5323668 
H     2.0815727   -4.2612334   -1.3420244 
H     4.9109494   -1.7645865   -3.4741899 
H     6.7736505   -3.1840440   -2.6630073 
O    -1.8963967    2.2924129    2.7327246 
O    -2.1934360   -0.5189464    3.5603569 
N     0.2968399    3.6918082    3.8164160 
N    -4.6123501   -1.7948285    2.8435952 
C    -0.4755280    0.6429429    1.8090324 
C    -1.7266080   -0.0055204    1.3045558 
C    -0.6218773    1.8187905    2.5610650 
C    -2.5845998   -0.5943476    2.2499549 
C     0.4968252    2.5301539    3.0901111 
C    -3.8008049   -1.2339656    1.8645920 
C     0.8289720    0.1163194    1.5876957 
C    -2.0924656   -0.0139506   -0.0701493 
C    -1.0460350    4.2568809    3.8732102 
C    -4.4234641   -1.2806815    4.1949355 
C    -2.0658529    3.1240774    3.8844210 
C    -2.9339618   -1.2913251    4.5128221 
C     1.7790436    1.9911384    2.8399026 
C    -4.1250946   -1.2436732    0.4910273 
C     1.9360967    0.8077350    2.1148496 
C    -3.2892218   -0.6452819   -0.4546789 
C     1.4240529    4.5345704    4.1843363 
C    -5.9076357   -2.3536776    2.4893795 
C     2.7595349   -1.9466955    0.9227799 
C    -0.0960374   -2.6161411    1.0179531 
C    -1.9794209    0.8766256   -2.8308322 
C    -0.6003086    2.4060887   -0.7197704 
C     3.8673542   -1.3201706    0.3129120 
C    -0.2933873   -2.9101453    2.3837577 
C    -2.2453989   -0.2959344   -3.5733536 
C    -1.6395045    3.2439595   -0.2653407 
C     2.9804694   -3.0031557    1.8273753 
C    -0.8075631   -3.3372298    0.0408410 
C    -2.4698389    2.1094383   -3.2984950 
C     0.7305029    2.8626176   -0.6955727 
C     5.1713547   -1.7179699    0.6292289 
C    -1.1653058   -3.9414411    2.7551687 
C    -3.0119468   -0.2389656   -4.7438486 
C    -1.3441896    4.5383801    0.1792368 
C     4.2878892   -3.4044976    2.1346262 
C    -1.7019095   -4.3484064    0.4200422 
C    -3.2328079    2.1635765   -4.4754822 
C     1.0220367    4.1512677   -0.2308912 
C     5.3839192   -2.7610558    1.5428142 
C    -1.8741644   -4.6571641    1.7767330 
C    -3.5096773    0.9944058   -5.1968186 
C    -0.0153233    4.9921907    0.1992099 
H    -1.1465103    4.8523807    4.7981607 
H    -1.2447486    4.9273453    3.0121862 
H    -4.8306939   -0.2523595    4.3071690 
H    -4.9531139   -1.9348210    4.9078055 
H    -1.9569337    2.5095073    4.7990762 
H    -3.0932120    3.5149648    3.8299706 
H    -2.7267986   -0.8358234    5.4940918 
H    -2.5608628   -2.3310976    4.5087504 
H     2.6689908    2.4985095    3.2185552 
H    -5.0581954   -1.7011384    0.1548914 
H     2.9471899    0.4204543    1.9635272 
H    -3.6008099   -0.6505868   -1.5017883 
H     1.0547102    5.3723535    4.7951758 
H     1.9441644    4.9486469    3.2959727 
H     2.1587188    3.9720973    4.7879609 
H    -6.6246194   -1.5869697    2.1266731 
H    -6.3371222   -2.8404273    3.3789955 
H    -5.7902786   -3.1206416    1.7046198 
H     3.7001297   -0.5237210   -0.4226956 
H     0.2186383   -2.3176039    3.1492825 
H    -1.8458171   -1.2583375   -3.2298326 
H    -2.6695078    2.8737449   -0.2368945 
H     2.1362710   -3.5250159    2.2860369 
H    -0.6702845   -3.0862536   -1.0176947 
H    -2.2427553    3.0333456   -2.7597466 
H     1.5326805    2.1935639   -1.0228175 
H     6.0216137   -1.2278847    0.1450114 
H    -1.2954641   -4.1892492    3.8140606 
H    -3.2160800   -1.1557392   -5.3067383 
H    -2.1538334    5.1909982    0.5229158 
H     4.4484194   -4.2290774    2.8370804 
H    -2.2626537   -4.8954797   -0.3447756 
H    -3.6027167    3.1301894   -4.8328039 
H     2.0601561    4.4978986   -0.2040624 
H     6.4034385   -3.0811503    1.7810828 
H    -2.5640889   -5.4537160    2.0743578 
H    -4.1038135    1.0419446   -6.1152289 
H     0.2119152    6.0025621    0.5562210 
