115
Energy =
C     1.3040221   -0.0336609   -3.9430217 
C     2.5291529   -0.2680550   -3.2747140 
C     2.8378643   -1.5563559   -2.7481157 
H     3.1982852    0.5739176   -3.0514829 
Pd    0.9864405   -0.7132056   -1.7833208 
P     0.9452061   -1.6249236    0.3728496 
P    -0.9049127    0.6309248   -1.3187086 
H     0.7915289   -0.9146565   -4.3596549 
H     2.3968947   -2.4223671   -3.2651976 
C     0.0347891    3.6625229   -5.7409256 
C    -0.4435170    2.4309485   -6.2110601 
C    -0.0291292    1.2392348   -5.6059308 
C     0.8829488    1.2512417   -4.5269831 
C     1.3645221    2.4997358   -4.0711410 
C     0.9399668    3.6908823   -4.6668662 
H    -0.2945870    4.5967133   -6.2074996 
H    -1.1498252    2.3968860   -7.0466284 
H    -0.4155344    0.2818511   -5.9704529 
H     2.0691349    2.5433587   -3.2366215 
H     1.3168491    4.6477061   -4.2907547 
C     6.4571831   -2.3844482   -0.5708848 
C     5.7309105   -1.2122324   -0.3020068 
C     4.5598021   -0.9329369   -1.0126712 
C     4.0822785   -1.8249734   -1.9991813 
C     4.8211701   -2.9992452   -2.2583704 
C     6.0022350   -3.2717633   -1.5568090 
H     7.3708419   -2.6056269   -0.0098780 
H     6.0755945   -0.5202738    0.4737849 
H     3.9792902   -0.0321740   -0.7795890 
H     4.4639353   -3.7025991   -3.0192044 
H     6.5645270   -4.1860323   -1.7735713 
O    -1.5257329    2.2606481    2.8078305 
O    -2.0704563   -0.6220527    3.5648752 
N     0.8764034    3.5066935    3.6109301 
N    -4.6400749   -1.5968289    2.9130474 
C    -0.3386292    0.4944133    1.7731670 
C    -1.6728899   -0.0067409    1.3204421 
C    -0.3154994    1.6879673    2.5141567 
C    -2.5416117   -0.5391242    2.2802152 
C     0.9054153    2.3208994    2.8947537 
C    -3.8373792   -1.0318102    1.9371540 
C     0.8867965   -0.1437164    1.4433504 
C    -2.0933177    0.0789873   -0.0373025 
C    -0.4040277    4.1853160    3.7736547 
C    -4.0563688   -1.8508638    4.2251282 
C    -1.5049462    3.1439366    3.9341832 
C    -3.0888658   -0.7236903    4.5660055 
C     2.1097679    1.6970682    2.4922672 
C    -4.2366976   -0.9126766    0.5867745 
C     2.0976389    0.4922556    1.7872710 
C    -3.3845336   -0.3644748   -0.3749154 
C     2.0966126    4.2690401    3.8238665 
C    -5.8729619   -2.2785960    2.5496537 
C     2.3160599   -2.6720928    1.0133502 
C    -0.4931661   -2.7070175    0.7764037 
C    -1.9479938    0.8502340   -2.8162002 
C    -0.3903233    2.3031326   -0.7531995 
C     2.7566910   -3.7227087    0.1855329 
C    -1.3927188   -3.0936186   -0.2326357 
C    -2.4243846    2.0951287   -3.2636519 
C    -1.3508943    3.2380170   -0.3144007 
C     2.8335341   -2.5583988    2.3204981 
C    -0.6450093   -3.2190130    2.0811259 
C    -2.2873546   -0.3182626   -3.5330197 
C     0.9753353    2.6389541   -0.7110542 
C     3.7132918   -4.6343769    0.6471611 
C    -2.4495274   -3.9668600    0.0613867 
C    -3.2553130    2.1638036   -4.3920583 
C    -0.9453518    4.5104215    0.1072429 
C     3.7962642   -3.4701628    2.7753013 
C    -1.6937080   -4.1002862    2.3671044 
C    -3.1285059   -0.2465069   -4.6503048 
C     1.3788413    3.9056541   -0.2690237 
C     4.2412128   -4.5051968    1.9400808 
C    -2.5997069   -4.4725473    1.3604831 
C    -3.6198352    0.9972941   -5.0781582 
C     0.4179701    4.8475792    0.1265149 
H    -0.3620594    4.8196424    4.6768180 
H    -0.6345257    4.8380821    2.9070519 
H    -4.8638689   -1.8840138    4.9776494 
H    -3.5205115   -2.8216000    4.2558278 
H    -1.3504625    2.5556914    4.8595831 
H    -2.4976830    3.6179086    3.9670868 
H    -3.6290917    0.2400438    4.6409282 
H    -2.5653273   -0.9213662    5.5136602 
H     3.0698606    2.1614824    2.7269879 
H    -5.2226746   -1.2651070    0.2765155 
H     3.0528985    0.0433953    1.4987052 
H    -3.7384968   -0.2966216   -1.4066799 
H     1.8668066    5.1313549    4.4681718 
H     2.5290171    4.6454104    2.8733390 
H     2.8595044    3.6563508    4.3362203 
H    -6.3744802   -2.6165323    3.4691410 
H    -5.6873268   -3.1613095    1.9037987 
H    -6.5601575   -1.5959703    2.0183940 
H     2.3448034   -3.8249963   -0.8240095 
H    -1.2688079   -2.6951837   -1.2461800 
H    -2.1351603    3.0155061   -2.7492297 
H    -2.4095893    2.9602257   -0.2824568 
H     2.4811847   -1.7662638    2.9879845 
H     0.0522897   -2.9244776    2.8714292 
H    -1.8909036   -1.2883345   -3.2088335 
H     1.7193102    1.8867437   -0.9973230 
H     4.0549610   -5.4407001   -0.0092407 
H    -3.1537662   -4.2529412   -0.7264600 
H    -3.6115266    3.1391681   -4.7388948 
H    -1.6963772    5.2377064    0.4337245 
H     4.1948505   -3.3730753    3.7907183 
H    -1.7999881   -4.5044696    3.3795549 
H    -3.3948970   -1.1604170   -5.1915629 
H     2.4445776    4.1534194   -0.2275955 
H     4.9958719   -5.2133929    2.2976844 
H    -3.4182852   -5.1638281    1.5879906 
H    -4.2733101    1.0568006   -5.9547007 
H     0.7314234    5.8414547    0.4638257 
