115
Energy =
C    -1.5346748    3.8152124   -0.5798977 
C    -2.6219109    3.0386415   -1.0466128 
C    -3.5042506    2.3947015   -0.1306145 
H    -2.7201440    2.8281978   -2.1200895 
Pd   -1.3957243    1.6432073    0.1153721 
P    -1.6123107   -0.5654148    0.8629724 
P     0.9559841    1.4281643   -0.0284168 
H    -1.6092515    4.2032738    0.4478679 
H    -3.6417195    2.8780571    0.8487814 
C     1.2858532    5.9817517   -3.0001720 
C     0.9912472    6.3948187   -1.6928179 
C     0.0807455    5.6702884   -0.9155760 
C    -0.5659154    4.5254233   -1.4324678 
C    -0.2660318    4.1269713   -2.7553092 
C     0.6536654    4.8430912   -3.5268976 
H     2.0040739    6.5425379   -3.6073031 
H     1.4789388    7.2796176   -1.2715286 
H    -0.1355311    5.9914184    0.1085547 
H    -0.7466134    3.2434713   -3.1834229 
H     0.8792910    4.5109702   -4.5456373 
C    -6.7637743   -0.1156234   -1.3944456 
C    -5.5065333   -0.2380160   -2.0093791 
C    -4.4465241    0.5814367   -1.6102124 
C    -4.6164775    1.5327497   -0.5792360 
C    -5.8843493    1.6443937    0.0305872 
C    -6.9501724    0.8337769   -0.3794728 
H    -7.5918314   -0.7616176   -1.7033551 
H    -5.3518765   -0.9846077   -2.7956291 
H    -3.4587635    0.4630916   -2.0717048 
H    -6.0325162    2.3759788    0.8330871 
H    -7.9279009    0.9365304    0.1027517 
O     1.8001146   -3.4267649    1.5534495 
O     2.7770272   -2.5086962   -1.1591779 
N     3.3789038   -2.6451179    3.7613390 
N     1.4938099   -3.4052835   -3.5082884 
C     1.5481452   -1.1816928    0.8670617 
C     0.7356551   -1.7009976   -0.2759846 
C     2.1025645   -2.1058315    1.7604456 
C     1.4238093   -2.3532575   -1.3129006 
C     2.8970186   -1.6976168    2.8747819 
C     0.7684874   -2.7816745   -2.5058168 
C     1.8027523    0.2080270    1.0457051 
C    -0.6687111   -1.5158396   -0.3815425 
C     2.8946449   -4.0151501    3.6380722 
C     2.9482838   -3.4162078   -3.4048112 
C     2.7121729   -4.3475103    2.1619343 
C     3.3443300   -3.5652847   -1.9408808 
C     3.1519656   -0.3145848    3.0138611 
C    -0.6181485   -2.5214540   -2.6108702 
C     2.6208594    0.6138212    2.1152721 
C    -1.3177450   -1.9068936   -1.5708695 
C     4.0145638   -2.2350262    5.0042765 
C     0.8898609   -3.6562709   -4.8074086 
C     1.7941085    3.0154419    0.3675213 
C     1.4617705    0.9461653   -1.7292206 
C    -3.2521859   -1.3874718    1.0079177 
C    -0.9276983   -0.9332018    2.5361041 
C     2.8002957    3.5894822   -0.4293666 
C     2.8107258    0.6537014   -2.0190072 
C    -4.2630274   -0.6777843    1.6844850 
C    -0.4833471    0.1125875    3.3642300 
C     1.3936822    3.6696829    1.5532028 
C     0.4913799    0.8219706   -2.7404194 
C    -3.4914557   -2.7183767    0.6072937 
C    -0.9297058   -2.2565011    3.0224158 
C     3.4187864    4.7825323   -0.0265535 
C     3.1835911    0.2956191   -3.3205564 
C    -5.5002369   -1.2798604    1.9413149 
C    -0.0240062   -0.1608703    4.6604389 
C     2.0237637    4.8527216    1.9585317 
C     0.8652825    0.4440612   -4.0366435 
C    -4.7350224   -3.3137519    0.8602055 
C    -0.4817476   -2.5232140    4.3210338 
C     3.0441899    5.4082487    1.1701963 
C     2.2135604    0.1945367   -4.3312933 
C    -5.7418149   -2.5962918    1.5222945 
C    -0.0247578   -1.4781630    5.1406338 
H     3.6382637   -4.7007910    4.0813000 
H     1.9338421   -4.1613285    4.1727719 
H     3.3429082   -4.2709372   -3.9823115 
H     3.3950452   -2.4886585   -3.8172723 
H     3.6843346   -4.3064815    1.6331640 
H     2.2691222   -5.3463361    2.0305759 
H     3.0018757   -4.5406523   -1.5438321 
H     4.4347143   -3.4850580   -1.8146316 
H     3.7637175    0.0465539    3.8432880 
H    -1.1577345   -2.7966500   -3.5195469 
H     2.8455690    1.6726118    2.2665819 
H    -2.3902552   -1.7280803   -1.6935914 
H     4.8973372   -1.6010846    4.8063789 
H     4.3558216   -3.1335358    5.5404127 
H     3.3203862   -1.6732042    5.6625965 
H    -0.0225776   -4.2702770   -4.7056164 
H     1.6062819   -4.2157081   -5.4281320 
H     0.6241364   -2.7173508   -5.3364485 
H     3.0919475    3.1221952   -1.3737943 
H     3.5604114    0.6853365   -1.2216135 
H    -4.0756508    0.3503892    2.0117236 
H    -0.4867662    1.1402043    2.9829779 
H     0.5855125    3.2449335    2.1614849 
H    -0.5625109    0.9926139   -2.4929311 
H    -2.7077108   -3.2947168    0.1068109 
H    -1.2759768   -3.0756397    2.3847053 
H     4.1930374    5.2271931   -0.6600748 
H     4.2346317    0.0834105   -3.5437669 
H    -6.2808428   -0.7149696    2.4602578 
H     0.3316713    0.6571231    5.2951665 
H     1.7135961    5.3452569    2.8861057 
H     0.1016075    0.3384179   -4.8141995 
H    -4.9138395   -4.3465378    0.5427704 
H    -0.4965716   -3.5515127    4.6980224 
H     3.5345664    6.3362410    1.4820302 
H     2.5083794   -0.0926534   -5.3463929 
H    -6.7128018   -3.0639774    1.7155706 
H     0.3230252   -1.6907907    6.1572764 
