115
Energy =
C    -1.5598408    3.8159905   -0.5696226 
C    -2.6379575    3.0332473   -1.0459236 
C    -3.5244283    2.3829641   -0.1377771 
H    -2.7254164    2.8227972   -2.1203057 
Pd   -1.4172717    1.6417054    0.1274435 
P    -1.6354784   -0.5647873    0.8782660 
P     0.9354896    1.4315530   -0.0126521 
H    -1.6443537    4.2014124    0.4583703 
H    -3.6758596    2.8661420    0.8396170 
C     1.2730822    5.9971107   -2.9616690 
C     0.9669034    6.4058896   -1.6555969 
C     0.0525194    5.6765458   -0.8875113 
C    -0.5866238    4.5311285   -1.4126155 
C    -0.2749649    4.1369281   -2.7340513 
C     0.6486520    4.8578907   -3.4963857 
H     1.9945841    6.5615289   -3.5615106 
H     1.4484794    7.2911197   -1.2282294 
H    -0.1730486    5.9944137    0.1356390 
H    -0.7492711    3.2530740   -3.1683423 
H     0.8833573    4.5291800   -4.5141801 
C    -6.7505647   -0.1537212   -1.4348255 
C    -5.4876672   -0.2614095   -2.0409930 
C    -4.4387057    0.5668537   -1.6310424 
C    -4.6255030    1.5126230   -0.5978185 
C    -5.8989241    1.6098847    0.0026070 
C    -6.9537275    0.7902973   -0.4181366 
H    -7.5698967   -0.8068201   -1.7519673 
H    -5.3200663   -1.0030994   -2.8292696 
H    -3.4465951    0.4596967   -2.0858332 
H    -6.0601815    2.3369651    0.8066747 
H    -7.9359397    0.8817942    0.0571866 
O     1.8315735   -3.4274045    1.5203296 
O     2.7604041   -2.4635094   -1.1700599 
N     3.4460691   -2.6547000    3.7116664 
N     1.4709704   -3.3961651   -3.4969636 
C     1.5351429   -1.1784788    0.8776272 
C     0.7159288   -1.6925626   -0.2635515 
C     2.1041005   -2.1074284    1.7613654 
C     1.4037503   -2.3320892   -1.3082047 
C     2.9242236   -1.6954375    2.8555892 
C     0.7456566   -2.7734731   -2.4948904 
C     1.7884343    0.2105795    1.0588586 
C    -0.6904169   -1.5164043   -0.3634180 
C     3.4934436   -4.0203598    3.2029357 
C     2.9259883   -3.4119200   -3.3965200 
C     2.1475694   -4.3508143    2.5693711 
C     3.3273022   -3.5345249   -1.9312228 
C     3.1716143   -0.3129231    2.9995889 
C    -0.6435799   -2.5252630   -2.5927490 
C     2.6102771    0.6198497    2.1238130 
C    -1.3412624   -1.9121251   -1.5503837 
C     4.3590506   -2.2725971    4.7769476 
C     0.8626198   -3.6613005   -4.7911624 
C     1.7698249    3.0197776    0.3875202 
C     1.4404937    0.9542876   -1.7148234 
C    -3.2753795   -1.3863646    1.0258759 
C    -0.9500516   -0.9259033    2.5516797 
C     1.3650225    3.6721946    1.5727169 
C     0.4677565    0.8272317   -2.7237223 
C    -4.2855645   -0.6747130    1.7013491 
C    -0.4812524    0.1201657    3.3646084 
C     2.7786092    3.5954417   -0.4049849 
C     2.7894439    0.6657323   -2.0080397 
C    -3.5145185   -2.7191195    0.6311122 
C    -0.9706410   -2.2438349    3.0529724 
C     1.9935527    4.8546426    1.9822831 
C     0.8392726    0.4495447   -4.0205309 
C    -5.5216055   -1.2769471    1.9636079 
C    -0.0091896   -0.1477159    4.6577358 
C     3.3953484    4.7879758    0.0018604 
C     3.1597909    0.3074145   -3.3102738 
C    -4.7567920   -3.3147489    0.8896448 
C    -0.5123152   -2.5043563    4.3494641 
C     3.0166389    5.4115648    1.1984959 
C     2.1875219    0.2028755   -4.3183066 
C    -5.7626754   -2.5955487    1.5512770 
C    -0.0239605   -1.4592574    5.1511381 
H     4.3081090   -4.1569395    2.4591987 
H     3.6816611   -4.7111283    4.0421556 
H     3.3152782   -4.2787061   -3.9597947 
H     3.3747712   -2.4940068   -3.8280990 
H     2.1567000   -5.3468857    2.0998940 
H     1.3538809   -4.3159433    3.3374017 
H     2.9880037   -4.5014661   -1.5119417 
H     4.4180193   -3.4502656   -1.8113436 
H     3.8210445    0.0425447    3.8025266 
H    -1.1867310   -2.8072667   -3.4972539 
H     2.8324590    1.6791024    2.2750316 
H    -2.4151058   -1.7387306   -1.6691069 
H     3.8996875   -1.4961385    5.4130147 
H     5.3284493   -1.8868234    4.3968901 
H     4.5570346   -3.1547222    5.4056744 
H    -0.0433401   -4.2836784   -4.6812866 
H     1.5812924   -4.2168631   -5.4127046 
H     0.5848659   -2.7280518   -5.3239397 
H     0.5544853    3.2466839    2.1772585 
H    -0.5860060    0.9948803   -2.4734819 
H    -4.0982911    0.3550560    2.0238077 
H    -0.4736454    1.1439302    2.9734532 
H     3.0735920    3.1298006   -1.3491914 
H     3.5411075    0.6988688   -1.2126381 
H    -2.7313483   -3.2966291    0.1310248 
H    -1.3451898   -3.0620921    2.4297872 
H     1.6798063    5.3457655    2.9094033 
H     0.0738852    0.3411209   -4.7960232 
H    -6.3018479   -0.7105044    2.4814933 
H     0.3673172    0.6710897    5.2792731 
H     4.1715831    5.2339535   -0.6283118 
H     4.2106336    0.0967399   -3.5357559 
H    -4.9353397   -4.3490496    0.5770075 
H    -0.5452887   -3.5262211    4.7425789 
H     3.5057620    6.3391521    1.5135042 
H     2.4803868   -0.0849326   -5.3337968 
H    -6.7326238   -3.0634861    1.7491193 
H     0.3359704   -1.6683444    6.1639996 
