115
Energy =
C     1.2866547   -0.1156584   -3.9554580 
C     2.5155987   -0.3296705   -3.2881640 
C     2.8350657   -1.6058212   -2.7377110 
H     3.1798229    0.5208376   -3.0836438 
Pd    0.9840392   -0.7609949   -1.7808062 
P     0.9588404   -1.6440532    0.3868340 
P    -0.9058217    0.5899119   -1.3249310 
H     0.7768138   -1.0072789   -4.3522385 
H     2.4010607   -2.4850812   -3.2380414 
C    -0.0142747    3.5394286   -5.8131518 
C    -0.4881334    2.2967414   -6.2579169 
C    -0.0636138    1.1187397   -5.6333347 
C     0.8543843    1.1558140   -4.5599547 
C     1.3307515    2.4152258   -4.1292914 
C     0.8962776    3.5927410   -4.7446270 
H    -0.3515211    4.4629729   -6.2950397 
H    -1.1986357    2.2433888   -7.0888968 
H    -0.4463103    0.1526050   -5.9781435 
H     2.0389320    2.4783577   -3.2990654 
H     1.2698020    4.5584449   -4.3883964 
C     6.4661435   -2.3583283   -0.5521213 
C     5.7328777   -1.1846783   -0.3094678 
C     4.5578940   -0.9302708   -1.0230519 
C     4.0834623   -1.8489318   -1.9864442 
C     4.8295931   -3.0239479   -2.2196795 
C     6.0143670   -3.2718892   -1.5151790 
H     7.3826923   -2.5600556    0.0114894 
H     6.0754798   -0.4716822    0.4480187 
H     3.9726413   -0.0276177   -0.8100923 
H     4.4749580   -3.7477521   -2.9623333 
H     6.5820857   -4.1873622   -1.7116916 
O    -1.4886650    2.3038727    2.7424643 
O    -2.0540021   -0.5262954    3.5939603 
N     0.9164177    3.5367126    3.5442333 
N    -4.6488033   -1.4768671    2.9859610 
C    -0.3162354    0.4997884    1.7593414 
C    -1.6581601   -0.0024640    1.3295548 
C    -0.2840902    1.7106911    2.4707726 
C    -2.5269026   -0.5056342    2.3091469 
C     0.9399579    2.3412969    2.8452879 
C    -3.8363914   -0.9716039    1.9809769 
C     0.9060296   -0.1492216    1.4375262 
C    -2.0887134    0.0622507   -0.0256648 
C    -0.3610893    4.2204643    3.7118593 
C    -4.2983498   -1.1042840    4.3514034 
C    -1.4684921    3.1851468    3.8697779 
C    -2.7993297   -1.3019332    4.5405246 
C     2.1405142    1.7037934    2.4535844 
C    -4.2418127   -0.8783171    0.6318773 
C     2.1202154    0.4881968    1.7672495 
C    -3.3836847   -0.3784432   -0.3508515 
C     2.1402433    4.2956969    3.7479811 
C    -6.0182122   -1.8715566    2.6974368 
C     2.3327861   -2.6844598    1.0316814 
C    -0.4781759   -2.7190208    0.8105514 
C    -1.9590761    0.7842689   -2.8188078 
C    -0.3841354    2.2702707   -0.7918052 
C     2.7663937   -3.7461491    0.2143965 
C    -0.6124586   -3.2349553    2.1160133 
C    -2.3020509   -0.3956519   -3.5148605 
C     0.9830980    2.6018683   -0.7628263 
C     2.8569675   -2.5568997    2.3349720 
C    -1.3986937   -3.0930520   -0.1832165 
C    -2.4406075    2.0213920   -3.2821666 
C    -1.3389056    3.2154662   -0.3628483 
C     3.7213287   -4.6561219    0.6828654 
C    -1.6672073   -4.1040444    2.4176425 
C    -3.1520999   -0.3425987   -4.6264659 
C     1.3935821    3.8734866   -0.3423183 
C     3.8184054   -3.4666761    2.7963676 
C    -2.4627443   -3.9521378    0.1272126 
C    -3.2802111    2.0712566   -4.4050698 
C    -0.9263263    4.4924649    0.0376332 
C     4.2550996   -4.5138399    1.9719501 
C    -2.5983024   -4.4579476    1.4270907 
C    -3.6485893    0.8936086   -5.0698426 
C     0.4382096    4.8246003    0.0449019 
H    -0.3140877    4.8518829    4.6169890 
H    -0.5887176    4.8777086    2.8478018 
H    -4.5748704   -0.0517009    4.5770120 
H    -4.8445265   -1.7560575    5.0541308 
H    -1.3224673    2.5937997    4.7943704 
H    -2.4581027    3.6656608    3.8991702 
H    -2.4698540   -0.9604948    5.5342188 
H    -2.5445671   -2.3702895    4.4182260 
H     3.1037075    2.1659181    2.6801389 
H    -5.2473898   -1.1919701    0.3433385 
H     3.0726529    0.0308751    1.4826623 
H    -3.7433451   -0.3248108   -1.3813727 
H     1.9143975    5.1679985    4.3800711 
H     2.5748365    4.6567595    2.7925721 
H     2.9001091    3.6865122    4.2691158 
H    -6.6648659   -1.0134634    2.4173438 
H    -6.4434737   -2.3512538    3.5927707 
H    -6.0380397   -2.6066929    1.8742419 
H     2.3498129   -3.8585840   -0.7921834 
H     0.1071231   -2.9568624    2.8925236 
H    -1.9010708   -1.3599566   -3.1792986 
H     1.7226839    1.8425558   -1.0419707 
H     2.5103191   -1.7555755    2.9944404 
H    -1.2868562   -2.6941720   -1.1978751 
H    -2.1489229    2.9500932   -2.7843869 
H    -2.3983589    2.9422421   -0.3205048 
H     4.0570896   -5.4716184    0.0347407 
H    -1.7591447   -4.5171345    3.4279460 
H    -3.4212881   -1.2652448   -5.1512503 
H     2.4603888    4.1179914   -0.3104882 
H     4.2224698   -3.3585324    3.8084933 
H    -3.1836561   -4.2269828   -0.6494716 
H    -3.6403433    3.0405981   -4.7645106 
H    -1.6728388    5.2271039    0.3578466 
H     5.0079169   -5.2211806    2.3350717 
H    -3.4235565   -5.1360494    1.6684970 
H    -4.3090181    0.9385218   -5.9420310 
H     0.7571965    5.8218518    0.3666870 
