115
Energy =
C     1.1511636   -0.1035682   -3.9032502 
C     2.2913658   -0.8321931   -3.4539592 
C     2.1739053   -2.1302525   -2.9075699 
H     3.2573752   -0.3167795   -3.3737239 
Pd    0.8958718   -0.6317485   -1.7459839 
P     1.0758606   -1.2964276    0.4901493 
P    -0.9676310    0.7187320   -1.3174254 
H     0.3128984   -0.6810825   -4.3167593 
H     1.2448029   -2.6867648   -3.1108636 
C     1.2097468    4.0283870   -5.1203107 
C     2.2073057    3.5419182   -4.2581520 
C     2.2023024    2.2022885   -3.8597626 
C     1.1998445    1.3129982   -4.3152507 
C     0.2069673    1.8160174   -5.1845969 
C     0.2119615    3.1586814   -5.5824499 
H     1.2130344    5.0791541   -5.4279783 
H     2.9891118    4.2148661   -3.8902414 
H     2.9764387    1.8459847   -3.1706637 
H    -0.5781963    1.1435239   -5.5464017 
H    -0.5705995    3.5255589   -6.2548489 
C     5.4246344   -4.5656613   -1.5031665 
C     4.1030235   -4.8500972   -1.1235921 
C     3.0527511   -4.0550598   -1.5902107 
C     3.3019564   -2.9476024   -2.4332011 
C     4.6368764   -2.6751116   -2.8104466 
C     5.6859587   -3.4802882   -2.3530322 
H     6.2467589   -5.1923186   -1.1425567 
H     3.8926568   -5.6921818   -0.4566536 
H     2.0238964   -4.2712602   -1.2802583 
H     4.8544611   -1.8464575   -3.4922690 
H     6.7124760   -3.2640679   -2.6670490 
O    -1.8929933    2.3251298    2.7553914 
O    -2.1610549   -0.5237839    3.5723423 
N     0.3148445    3.7662263    3.7616157 
N    -4.5581117   -1.8297602    2.8673038 
C    -0.4730280    0.6866715    1.8074534 
C    -1.7241438    0.0308320    1.3126306 
C    -0.6162577    1.8654586    2.5561147 
C    -2.5680308   -0.5625433    2.2624639 
C     0.5077778    2.5928588    3.0511366 
C    -3.7750048   -1.2306417    1.8954049 
C     0.8304813    0.1635400    1.5740334 
C    -2.1008915    0.0157177   -0.0601046 
C    -1.0283147    4.3294020    3.8190424 
C    -4.0475409   -1.9023199    4.2306262 
C    -2.0422793    3.1936395    3.8832505 
C    -3.2237063   -0.6538920    4.5227585 
C     1.7891012    2.0588484    2.7855892 
C    -4.1150273   -1.2405497    0.5236938 
C     1.9421505    0.8657208    2.0761138 
C    -3.3022288   -0.6186802   -0.4264106 
C     1.4441139    4.6221431    4.0909916 
C    -5.6754544   -2.6828541    2.4919242 
C     2.7528026   -1.9127672    0.9289214 
C    -0.1019151   -2.5740116    1.0767629 
C    -2.0042719    0.8794132   -2.8300617 
C    -0.6006841    2.4198881   -0.7450248 
C     3.8553401   -1.3053188    0.2910664 
C    -0.2899122   -2.8156069    2.4534365 
C    -2.4847850    2.1118674   -3.3087828 
C     0.7316712    2.8717841   -0.7402656 
C     2.9805100   -2.9464218    1.8578967 
C    -0.8283227   -3.3238007    0.1319144 
C    -2.2878151   -0.2987656   -3.5570205 
C    -1.6320949    3.2668218   -0.2892954 
C     5.1616005   -1.7001137    0.6019630 
C    -1.1713051   -3.8199244    2.8715321 
C    -3.2552016    2.1605111   -4.4811769 
C     1.0326038    4.1651270   -0.2943496 
C     4.2900220   -3.3448990    2.1597725 
C    -1.7279044   -4.3115051    0.5565893 
C    -3.0619007   -0.2472252   -4.7227686 
C    -1.3277838    4.5657166    0.1355977 
C     5.3812118   -2.7207295    1.5389659 
C    -1.8934712   -4.5657772    1.9263482 
C    -3.5496204    0.9860690   -5.1867658 
C     0.0029180    5.0151303    0.1358524 
H    -1.1179429    4.9541051    4.7255313 
H    -1.2428112    4.9703701    2.9397027 
H    -4.8993871   -1.9531575    4.9321375 
H    -3.4239690   -2.8058569    4.3889435 
H    -1.9112809    2.6108943    4.8158722 
H    -3.0727649    3.5774760    3.8367538 
H    -3.8634717    0.2491917    4.4847674 
H    -2.7429491   -0.7168777    5.5107515 
H     2.6816329    2.5779652    3.1414232 
H    -5.0301866   -1.7348727    0.1907229 
H     2.9526694    0.4805125    1.9157148 
H    -3.6240899   -0.6299770   -1.4704931 
H     2.1935981    4.0750412    4.6903376 
H     1.0818334    5.4690239    4.6935138 
H     1.9443135    5.0225195    3.1849825 
H    -6.4106147   -2.1282934    1.8813524 
H    -6.1832965   -3.0236700    3.4068510 
H    -5.3457092   -3.5738599    1.9190548 
H     3.6820670   -0.5268054   -0.4621256 
H     0.2281063   -2.1966618    3.1930212 
H    -2.2445689    3.0394694   -2.7821777 
H     1.5280043    2.1962496   -1.0684674 
H     2.1396762   -3.4523953    2.3400892 
H    -0.6999554   -3.1121484   -0.9362262 
H    -1.8958705   -1.2613195   -3.2051270 
H    -2.6631617    2.9006926   -0.2465641 
H     6.0078784   -1.2256479    0.0956839 
H    -1.3014316   -4.0140782    3.9414852 
H    -3.6172815    3.1268101   -4.8472637 
H     2.0721614    4.5082926   -0.2827713 
H     4.4560273   -4.1521334    2.8808578 
H    -2.3004276   -4.8817235   -0.1821735 
H    -3.2796884   -1.1682446   -5.2734801 
H    -2.1317717    5.2261180    0.4777780 
H     6.4023642   -3.0384551    1.7734183 
H    -2.5903808   -5.3428420    2.2583015 
H    -4.1497153    1.0292551   -6.1015131 
H     0.2373223    6.0292216    0.4773396 
