115
Energy =
C    -1.4080772    3.7910993   -0.5363123 
C    -2.7090589    3.2092080   -0.5629921 
C    -3.2728287    2.6052421    0.5837055 
H    -3.2170646    3.0785212   -1.5273995 
Pd   -1.2742660    1.6343154    0.0432140 
P    -1.5630352   -0.6399523    0.5053181 
P     1.0570468    1.4420199   -0.0584647 
H    -1.0738643    4.2375591    0.4104628 
H    -2.8279641    2.8541561    1.5606328 
C     0.7048078    5.2376587   -3.9995407 
C    -0.2955023    4.2622574   -4.1513343 
C    -0.9919815    3.7879557   -3.0363787 
C    -0.7068470    4.2784679   -1.7398854 
C     0.2984873    5.2609890   -1.6041401 
C     0.9962920    5.7354002   -2.7217267 
H     1.2520068    5.6051564   -4.8737683 
H    -0.5268017    3.8649642   -5.1453074 
H    -1.7539778    3.0119221   -3.1711744 
H     0.5346137    5.6507861   -0.6081730 
H     1.7735146    6.4956529   -2.5907037 
C    -7.1786280    0.8298192    0.8286879 
C    -6.2028676    0.5461909    1.7977494 
C    -4.9369267    1.1315352    1.7106386 
C    -4.6129796    2.0009091    0.6436136 
C    -5.6059383    2.2800805   -0.3232219 
C    -6.8771087    1.7031079   -0.2273004 
H    -8.1723694    0.3760142    0.9003809 
H    -6.4297372   -0.1383829    2.6211646 
H    -4.1732045    0.8974300    2.4612197 
H    -5.3940964    2.9787572   -1.1391762 
H    -7.6391160    1.9417732   -0.9766595 
O     1.8658973   -3.4051026    1.5558323 
O     3.0894797   -2.4403694   -0.9460354 
N     3.1722883   -2.6205612    3.9340259 
N     2.1045639   -3.6118104   -3.3227602 
C     1.5778817   -1.1599574    0.8978341 
C     0.9322418   -1.7067838   -0.3375542 
C     2.0565579   -2.0821677    1.8455803 
C     1.7609646   -2.3702525   -1.2616396 
C     2.7032416   -1.6595155    3.0456419 
C     1.2414637   -2.9456856   -2.4605733 
C     1.7523564    0.2325266    1.1320912 
C    -0.4652273   -1.6177904   -0.5944883 
C     3.4264768   -3.9359786    3.3572708 
C     3.3495542   -4.0854416   -2.7289850 
C     2.1960960   -4.3629664    2.5677978 
C     3.9794201   -2.9373676   -1.9517262 
C     2.8498967   -0.2718705    3.2537558 
C    -0.1446073   -2.8236516   -2.6944352 
C     2.3814051    0.6535613    2.3178573 
C    -0.9775957   -2.1705498   -1.7826575 
C     3.9299239   -2.2215661    5.1095814 
C     1.5817294   -4.3092194   -4.4868995 
C     1.8373421    3.0434437    0.4076792 
C     1.7379775    0.9701824   -1.6906953 
C    -3.2562440   -1.2469014    0.1187754 
C    -1.2104469   -1.1802093    2.2209822 
C     2.8553511    3.6586326   -0.3435137 
C     3.1152975    0.7140222   -1.8559862 
C    -3.9083188   -0.6810965   -0.9978325 
C    -1.0906813   -0.2054653    3.2294419 
C     1.3442662    3.6958888    1.5603280 
C     0.8662306    0.8490671   -2.7878184 
C    -3.9209078   -2.2315743    0.8750421 
C    -1.0751131   -2.5455294    2.5503799 
C     3.3878107    4.8910530    0.0665872 
C     3.6125403    0.3826062   -3.1229638 
C    -5.1837362   -1.1185276   -1.3729044 
C    -0.8453767   -0.5871445    4.5560217 
C     1.8807533    4.9230221    1.9689487 
C     1.3648216    0.4849070   -4.0452927 
C    -5.2023007   -2.6600277    0.5016696 
C    -0.8597498   -2.9221797    3.8821034 
C     2.9083395    5.5229375    1.2216967 
C     2.7384965    0.2613888   -4.2160821 
C    -5.8329042   -2.1110928   -0.6237064 
C    -0.7387422   -1.9459782    4.8843061 
H     4.3213998   -3.9318665    2.6977217 
H     3.6065384   -4.6589697    4.1703619 
H     3.1828606   -4.9561246   -2.0581461 
H     4.0356587   -4.4017491   -3.5325796 
H     2.3661900   -5.3135523    2.0374550 
H     1.3374458   -4.4785491    3.2533398 
H     4.8863268   -3.2604020   -1.4163347 
H     4.2363972   -2.1164681   -2.6450729 
H     3.3584300    0.0942847    4.1483429 
H    -0.5875558   -3.2665375   -3.5892383 
H     2.5418745    1.7166326    2.5118274 
H    -2.0484383   -2.1205890   -1.9961377 
H     4.1105830   -3.1119255    5.7320610 
H     3.3498959   -1.4989079    5.7088054 
H     4.9097128   -1.7628084    4.8579164 
H     0.9372038   -5.1735454   -4.2198832 
H     2.4282741   -4.6771934   -5.0876075 
H     0.9943543   -3.6172369   -5.1146231 
H     3.2223428    3.1927829   -1.2619598 
H     3.7895531    0.7628584   -0.9943741 
H    -3.4127949    0.1153340   -1.5666881 
H    -1.1713159    0.8552744    2.9632631 
H     0.5324815    3.2367720    2.1384574 
H    -0.2049869    1.0213911   -2.6417956 
H    -3.4493732   -2.6594424    1.7638970 
H    -1.1161591   -3.3044599    1.7621516 
H     4.1748278    5.3623768   -0.5311875 
H     4.6864340    0.2140607   -3.2579904 
H    -5.6803204   -0.6677948   -2.2376634 
H    -0.7393721    0.1772571    5.3326442 
H     1.4934923    5.4148591    2.8673639 
H     0.6793404    0.3791733   -4.8923018 
H    -5.7113787   -3.4237443    1.0989093 
H    -0.7836683   -3.9833951    4.1419065 
H     3.3251127    6.4852701    1.5362239 
H     3.1308638   -0.0113890   -5.2014159 
H    -6.8359306   -2.4445302   -0.9089737 
H    -0.5575415   -2.2466641    5.9215150 
