115
Energy =
C     1.1618280   -0.0980657   -3.9107874 
C     2.3101925   -0.8129018   -3.4609031 
C     2.2063661   -2.1139812   -2.9189289 
H     3.2698279   -0.2859954   -3.3785927 
Pd    0.9100187   -0.6328533   -1.7540699 
P     1.0844919   -1.3052349    0.4793579 
P    -0.9648601    0.7043372   -1.3318981 
H     0.3313376   -0.6860373   -4.3253938 
H     1.2831015   -2.6789927   -3.1253054 
C     1.1699788    4.0325436   -5.1313454 
C     2.1643946    3.5630203   -4.2562475 
C     2.1755820    2.2239900   -3.8561003 
C     1.1928119    1.3187833   -4.3226303 
C     0.2022291    1.8049848   -5.2039781 
C     0.1912916    3.1469582   -5.6040892 
H     1.1607238    5.0828009   -5.4406443 
H     2.9304318    4.2488390   -3.8791331 
H     2.9460890    1.8805288   -3.1565292 
H    -0.5682449    1.1196686   -5.5732940 
H    -0.5887096    3.5008985   -6.2863499 
C     5.4779607   -4.5321280   -1.5344517 
C     4.1585275   -4.8332046   -1.1601741 
C     3.1015743   -4.0424957   -1.6189915 
C     3.3417677   -2.9231145   -2.4488395 
C     4.6747468   -2.6334177   -2.8202679 
C     5.7305616   -3.4340282   -2.3705466 
H     6.3053426   -5.1554096   -1.1800576 
H     3.9551023   -5.6849753   -0.5034866 
H     2.0740556   -4.2723651   -1.3144087 
H     4.8856694   -1.7950456   -3.4922071 
H     6.7555522   -3.2043457   -2.6799589 
O    -1.8745660    2.3182955    2.7380180 
O    -2.1342559   -0.4970375    3.5618148 
N     0.3312055    3.7144004    3.8219924 
N    -4.5826251   -1.7378695    2.8950787 
C    -0.4590615    0.6868448    1.7916464 
C    -1.7130014    0.0302581    1.3032687 
C    -0.5978672    1.8709626    2.5395506 
C    -2.5556926   -0.5598216    2.2622341 
C     0.5327476    2.5641971    3.0681264 
C    -3.7826709   -1.1913375    1.8980495 
C     0.8420158    0.1545842    1.5662731 
C    -2.0968123    0.0101481   -0.0666460 
C    -0.9938866    3.8569283    4.4141698 
C    -4.3762670   -1.1939228    4.2326120 
C    -2.0344289    3.6125163    3.3294286 
C    -2.8852399   -1.2233534    4.5411792 
C     1.8091253    2.0209657    2.8103732 
C    -4.1282206   -1.2053120    0.5303480 
C     1.9591412    0.8443188    2.0722969 
C    -3.3008789   -0.6194887   -0.4308551 
C     1.4551553    4.3717126    4.4695726 
C    -5.8883372   -2.2872335    2.5652693 
C     2.7593261   -1.9281737    0.9174030 
C    -0.0981872   -2.5857072    1.0460634 
C    -1.9991785    0.8331719   -2.8498693 
C    -0.6048823    2.4131502   -0.7833806 
C     3.8641022   -1.3097210    0.2936525 
C    -0.8295774   -3.3088560    0.0850768 
C    -2.4878307    2.0518606   -3.3548348 
C    -1.6431800    3.2828926   -0.3891729 
C     2.9850679   -2.9770656    1.8296319 
C    -0.2769613   -2.8679006    2.4169143 
C    -2.2707965   -0.3610274   -3.5552883 
C     0.7305603    2.8528003   -0.7429998 
C     5.1696386   -1.7062755    0.6050725 
C    -1.7265385   -4.3093297    0.4854380 
C    -3.2566439    2.0710692   -4.5292006 
C    -1.3402630    4.5943721   -0.0012922 
C     4.2939611   -3.3775583    2.1316610 
C    -1.1515440   -3.8891360    2.8091249 
C    -3.0418712   -0.3387378   -4.7238894 
C     1.0297210    4.1551811   -0.3226654 
C     5.3869568   -2.7409706    1.5270219 
C    -1.8812184   -4.6059274    1.8469913 
C    -3.5399046    0.8808887   -5.2123941 
C    -0.0051558    5.0295687    0.0384681 
H    -1.1476854    3.1503489    5.2585395 
H    -1.1070568    4.8825004    4.8039278 
H    -4.7643411   -0.1559344    4.3206371 
H    -4.9123181   -1.8207123    4.9648010 
H    -3.0572876    3.6312948    3.7379841 
H    -1.9399272    4.3835492    2.5437689 
H    -2.6631040   -0.7425016    5.5072382 
H    -2.5326545   -2.2700422    4.5671444 
H     2.7001008    2.5084640    3.2122619 
H    -5.0689662   -1.6588026    0.2103878 
H     2.9665745    0.4495500    1.9173691 
H    -3.6252156   -0.6325886   -1.4739700 
H     1.1010581    5.3106991    4.9231724 
H     2.2301622    4.6241907    3.7255664 
H     1.9205246    3.7502513    5.2639044 
H    -6.6037388   -1.5170723    2.2064093 
H    -6.3089377   -2.7625290    3.4653195 
H    -5.7894307   -3.0618090    1.7855592 
H     3.6933356   -0.5204719   -0.4488518 
H    -0.7056705   -3.0674063   -0.9773230 
H    -2.2540074    2.9923223   -2.8489583 
H    -2.6795181    2.9291036   -0.3755600 
H     2.1434604   -3.4940348    2.2983762 
H     0.2504383   -2.2737131    3.1704049 
H    -1.8719849   -1.3133875   -3.1839154 
H     1.5307892    2.1598477   -1.0223198 
H     6.0172323   -1.2221067    0.1103526 
H    -2.3031005   -4.8575916   -0.2666534 
H    -3.6252225    3.0271902   -4.9149718 
H    -2.1488493    5.2796273    0.2751582 
H     4.4579187   -4.1962660    2.8401678 
H    -1.2678065   -4.1276886    3.8717184 
H    -3.2497635   -1.2721301   -5.2573187 
H     2.0720973    4.4870255   -0.2805618 
H     6.4076092   -3.0602701    1.7614572 
H    -2.5735676   -5.3939846    2.1611093 
H    -4.1388048    0.9011190   -6.1287148 
H     0.2267357    6.0518739    0.3553027 
