115
Energy =
C     1.2774775   -0.1291149   -3.9590377 
C     2.5086784   -0.3419232   -3.2950612 
C     2.8257506   -1.6163766   -2.7399077 
H     3.1761489    0.5078245   -3.0980421 
Pd    0.9817449   -0.7572929   -1.7796558 
P     0.9634556   -1.6165480    0.3964920 
P    -0.9171081    0.5869570   -1.3402489 
H     0.7657375   -1.0219439   -4.3505846 
H     2.3825910   -2.4955792   -3.2323529 
C    -0.0199076    3.5190090   -5.8321306 
C    -0.4861207    2.2742988   -6.2793186 
C    -0.0637221    1.0983217   -5.6493497 
C     0.8457332    1.1399275   -4.5690154 
C     1.3147772    2.4011826   -4.1359015 
C     0.8813359    3.5766484   -4.7558530 
H    -0.3559923    4.4408838   -6.3180425 
H    -1.1898936    2.2177994   -7.1158445 
H    -0.4422081    0.1306208   -5.9945881 
H     2.0150869    2.4668488   -3.2992005 
H     1.2479784    4.5439999   -4.3969362 
C     6.4701062   -2.3849330   -0.5827616 
C     5.7450209   -1.2072954   -0.3351679 
C     4.5655457   -0.9474326   -1.0393488 
C     4.0784057   -1.8645741   -1.9976708 
C     4.8161214   -3.0440959   -2.2355662 
C     6.0055246   -3.2973370   -1.5409107 
H     7.3904570   -2.5906595   -0.0268344 
H     6.0974133   -0.4955199    0.4189168 
H     3.9865887   -0.0416297   -0.8227853 
H     4.4513716   -3.7668595   -2.9743398 
H     6.5668633   -4.2159533   -1.7411296 
O    -1.5039849    2.3069115    2.7640253 
O    -2.0264276   -0.5348077    3.5835329 
N     0.9012694    3.5722945    3.5392200 
N    -4.6289542   -1.4747109    2.9982636 
C    -0.3196449    0.5370252    1.7491360 
C    -1.6565274    0.0162769    1.3240296 
C    -0.2923531    1.7537078    2.4579992 
C    -2.5143268   -0.5011103    2.3065140 
C     0.9358120    2.3819920    2.8247715 
C    -3.8243807   -0.9711414    1.9857103 
C     0.9054510   -0.1048934    1.4251122 
C    -2.0924477    0.0688791   -0.0305511 
C    -0.3405178    3.8516800    4.2509151 
C    -4.2752255   -1.0783764    4.3564744 
C    -1.5042086    3.6383815    3.2910757 
C    -2.7774381   -1.2824405    4.5472971 
C     2.1366321    1.7522745    2.4285603 
C    -4.2373265   -0.8825246    0.6390842 
C     2.1200309    0.5409252    1.7339695 
C    -3.3850007   -0.3835366   -0.3493795 
C     2.1335559    4.1836212    4.0095407 
C    -5.9998034   -1.8713921    2.7197679 
C     2.3472733   -2.6370589    1.0521253 
C    -0.4633603   -2.6979595    0.8357200 
C    -1.9692145    0.7333617   -2.8415200 
C    -0.4172046    2.2835576   -0.8429843 
C     2.7823490   -3.7095574    0.2497292 
C    -1.3859089   -3.0855801   -0.1510935 
C    -2.4617410    1.9515108   -3.3421089 
C    -1.3871737    3.2401899   -0.4767778 
C     2.8802383   -2.4836011    2.3489503 
C    -0.5865327   -3.2071793    2.1449392 
C    -2.2935669   -0.4684140   -3.5089792 
C     0.9469997    2.6207189   -0.7819299 
C     3.7479342   -4.6040415    0.7259132 
C    -2.4420951   -3.9501797    0.1701894 
C    -3.2944845    1.9613513   -4.4712966 
C    -0.9896548    4.5343811   -0.1161988 
C     3.8522333   -3.3781626    2.8181178 
C    -1.6333942   -4.0820374    2.4572947 
C    -3.1352404   -0.4552859   -4.6280197 
C     1.3419737    3.9061397   -0.3883616 
C     4.2909732   -4.4355069    2.0080052 
C    -2.5672708   -4.4485671    1.4740212 
C    -3.6438708    0.7624827   -5.1074326 
C     0.3739393    4.8688370   -0.0694953 
H    -0.4591482    3.2036636    5.1460329 
H    -0.3342538    4.9014072    4.5892003 
H    -4.5445375   -0.0197741    4.5614937 
H    -4.8245155   -1.7132831    5.0719197 
H    -2.4742682    3.7596073    3.7984343 
H    -1.4349629    4.3583649    2.4558001 
H    -2.4438738   -0.9221106    5.5331097 
H    -2.5312476   -2.3552196    4.4481433 
H     3.0980703    2.2065959    2.6778861 
H    -5.2425997   -1.2022544    0.3560913 
H     3.0723892    0.0842557    1.4484965 
H    -3.7475587   -0.3392921   -1.3793318 
H     2.6624870    3.5638794    4.7642552 
H     1.8936816    5.1574277    4.4640307 
H     2.8196555    4.3632714    3.1633769 
H    -6.6488017   -1.0151090    2.4391123 
H    -6.4195701   -2.3471843    3.6198087 
H    -6.0236368   -2.6104466    1.9002719 
H     2.3589730   -3.8425085   -0.7514782 
H    -1.2813519   -2.6936262   -1.1690631 
H    -2.1823426    2.8973805   -2.8707297 
H    -2.4473194    2.9662438   -0.4604805 
H     2.5327317   -1.6737090    2.9973874 
H     0.1354268   -2.9199644    2.9158035 
H    -1.8843695   -1.4189096   -3.1452694 
H     1.6968026    1.8554650   -1.0140885 
H     4.0847166   -5.4278924    0.0890518 
H    -3.1648843   -4.2351114   -0.6010782 
H    -3.6627802    2.9166284   -4.8589883 
H    -1.7473570    5.2835832    0.1377228 
H     4.2630902   -3.2498960    3.8251532 
H    -1.7168754   -4.4896732    3.4705277 
H    -3.3889135   -1.3948474   -5.1300253 
H     2.4069419    4.1528504   -0.3272631 
H     5.0525681   -5.1304166    2.3767870 
H    -3.3864839   -5.1308119    1.7241472 
H    -4.2983090    0.7762329   -5.9851663 
H     0.6800807    5.8774946    0.2272197 
