115
Energy =
C    -1.5209279    3.8190429   -0.6534477 
C    -2.5974523    3.0365891   -1.1337154 
C    -3.5027474    2.4079721   -0.2288148 
H    -2.6698818    2.8090574   -2.2056971 
Pd   -1.4063441    1.6551314    0.0810860 
P    -1.6532899   -0.5373134    0.8631997 
P     0.9465697    1.4243457   -0.0199597 
H    -1.6183389    4.2216500    0.3667925 
H    -3.6656116    2.9084156    0.7379980 
C     1.3667047    5.9391941   -3.0348088 
C     1.0439775    6.3707849   -1.7401042 
C     0.1116431    5.6611312   -0.9751734 
C    -0.5289612    4.5128898   -1.4923011 
C    -0.2003194    4.0955387   -2.8024645 
C     0.7409550    4.7969379   -3.5614475 
H     2.1019164    6.4883659   -3.6321477 
H     1.5266010    7.2584214   -1.3189554 
H    -0.1271442    5.9969197    0.0392152 
H    -0.6751174    3.2087981   -3.2302430 
H     0.9884755    4.4504896   -4.5702777 
C    -6.7271727   -0.1267311   -1.5340152 
C    -5.4558285   -0.2535082   -2.1184655 
C    -4.4073148    0.5740178   -1.7059063 
C    -4.6031705    1.5382063   -0.6915602 
C    -5.8850258    1.6546148   -0.1129327 
C    -6.9391928    0.8356744   -0.5365573 
H    -7.5461930   -0.7793901   -1.8528622 
H    -5.2814422   -1.0095060   -2.8915320 
H    -3.4089933    0.4520439   -2.1430186 
H    -6.0534381    2.3961809    0.6763097 
H    -7.9280419    0.9422370   -0.0784515 
O     1.7806370   -3.4174947    1.5991636 
O     2.7561218   -2.5022981   -1.0912091 
N     3.3710633   -2.6247294    3.8009920 
N     1.4928814   -3.4608379   -3.4220184 
C     1.5118209   -1.1763321    0.9185845 
C     0.7051305   -1.7013796   -0.2265048 
C     2.0605051   -2.0962273    1.8243221 
C     1.4026985   -2.3624726   -1.2510660 
C     2.8687093   -1.6743090    2.9236211 
C     0.7582475   -2.8170417   -2.4402771 
C     1.7735263    0.2133009    1.0826816 
C    -0.6981592   -1.5157988   -0.3494994 
C     3.4140795   -3.9982556    3.3134545 
C     2.9461142   -3.4870509   -3.3000371 
C     2.0742922   -4.3273200    2.6664054 
C     3.3253773   -3.5894040   -1.8273244 
C     3.1252018   -0.2917399    3.0503209 
C    -0.6274424   -2.5596978   -2.5620114 
C     2.5836196    0.6321223    2.1528993 
C    -1.3350860   -1.9250827   -1.5394142 
C     4.2725507   -2.2339968    4.8729153 
C     0.9013115   -3.7405245   -4.7209217 
C     1.7876027    3.0119533    0.3683429 
C     1.4733948    0.9167683   -1.7067221 
C    -3.3018734   -1.3432765    0.9996892 
C    -0.9953091   -0.8775458    2.5519513 
C     2.8131861    3.5670230   -0.4172556 
C     2.8242530    0.6130069   -1.9747043 
C    -4.3158098   -0.6129358    1.6491004 
C    -0.5311740    0.1775236    3.3558577 
C     1.3699018    3.6861425    1.5367551 
C     0.5151447    0.7814336   -2.7283334 
C    -3.5461651   -2.6802367    0.6227008 
C    -1.0329666   -2.1874921    3.0728506 
C     3.4332866    4.7608768   -0.0195648 
C     3.2114951    0.2313876   -3.2653477 
C    -5.5602564   -1.2011994    1.9031875 
C    -0.0806311   -0.0738032    4.6599475 
C     2.0018067    4.8697734    1.9376012 
C     0.9032713    0.3802336   -4.0131620 
C    -4.7967825   -3.2618641    0.8727468 
C    -0.5961349   -2.4312993    4.3799675 
C     3.0414300    5.4060851    1.1612605 
C     2.2538707    0.1184662   -4.2863819 
C    -5.8060804   -2.5243117    1.5084858 
C    -0.1124201   -1.3774708    5.1729845 
H     4.2376380   -4.1526252    2.5831234 
H     3.5850441   -4.6777843    4.1654404 
H     3.3360979   -4.3659862   -3.8436789 
H     3.4088732   -2.5799668   -3.7396660 
H     2.0814700   -5.3305160    2.2123224 
H     1.2704598   -4.2741241    3.4227558 
H     2.9726019   -4.5470234   -1.3978919 
H     4.4148969   -3.5115765   -1.6931035 
H     3.7662862    0.0706987    3.8568438 
H    -1.1598099   -2.8515898   -3.4697917 
H     2.8121959    1.6917677    2.2913287 
H    -2.4057853   -1.7455385   -1.6760780 
H     4.4550816   -3.1082773    5.5170798 
H     3.8108022   -1.4447563    5.4912918 
H     5.2500123   -1.8613463    4.5004890 
H     1.6240930   -4.3117300   -5.3232262 
H     0.6396455   -2.8132065   -5.2718597 
H    -0.0116189   -4.3533279   -4.6150648 
H     3.1188032    3.0842490   -1.3493856 
H     3.5639755    0.6525499   -1.1684672 
H    -4.1247603    0.4203447    1.9578310 
H    -0.5103563    1.1950673    2.9492955 
H     0.5464613    3.2767997    2.1349664 
H    -0.5409052    0.9613569   -2.4970481 
H    -2.7607034   -3.2717610    0.1429773 
H    -1.4038002   -3.0125952    2.4565129 
H     4.2224789    5.1909274   -0.6446926 
H     4.2639516    0.0091278   -3.4713578 
H    -6.3431161   -0.6205299    2.4009934 
H     0.2924445    0.7517457    5.2745931 
H     1.6779431    5.3778420    2.8520235 
H     0.1488631    0.2652484   -4.7984133 
H    -4.9793126   -4.2995219    0.5738356 
H    -0.6424908   -3.4467395    4.7880825 
H     3.5335456    6.3343463    1.4695573 
H     2.5598169   -0.1874723   -5.2926721 
H    -6.7824447   -2.9814362    1.6999503 
H     0.2304868   -1.5735103    6.1943278 
