115
Energy =
C    -1.4385773    3.7841129   -0.5008080 
C    -2.7343895    3.1914750   -0.5390600 
C    -3.2975004    2.5705202    0.5988545 
H    -3.2374982    3.0670370   -1.5068541 
Pd   -1.2884033    1.6224537    0.0557414 
P    -1.5589272   -0.6588427    0.4934994 
P     1.0449629    1.4514397   -0.0394322 
H    -1.1119532    4.2228654    0.4522025 
H    -2.8584716    2.8126965    1.5800952 
C     0.6750458    5.2881151   -3.9390254 
C    -0.3158629    4.3055897   -4.1058081 
C    -1.0125869    3.8126973   -2.9990995 
C    -0.7370271    4.2911632   -1.6960473 
C     0.2588602    5.2810717   -1.5452200 
C     0.9568926    5.7741319   -2.6545605 
H     1.2225171    5.6701542   -4.8068243 
H    -0.5395854    3.9173932   -5.1050927 
H    -1.7672259    3.0316362   -3.1457130 
H     0.4874098    5.6618584   -0.5440190 
H     1.7267330    6.5397749   -2.5118614 
C    -7.1892293    0.7603308    0.8106054 
C    -6.2150987    0.4756565    1.7809977 
C    -4.9537506    1.0723007    1.7046733 
C    -4.6327021    1.9544049    0.6472498 
C    -5.6240022    2.2344207   -0.3210475 
C    -6.8906980    1.6460577   -0.2358341 
H    -8.1794284    0.2976183    0.8738698 
H    -6.4396169   -0.2185411    2.5969714 
H    -4.1912182    0.8375772    2.4562808 
H    -5.4146711    2.9424681   -1.1295374 
H    -7.6516372    1.8855307   -0.9860173 
O     1.8904479   -3.4061357    1.5239887 
O     3.1129782   -2.4035480   -0.9635121 
N     3.1823609   -2.6366399    3.9149338 
N     2.1448523   -3.5584234   -3.3552106 
C     1.5851415   -1.1564067    0.8897598 
C     0.9478206   -1.6951523   -0.3534621 
C     2.0687634   -2.0848684    1.8288659 
C     1.7848002   -2.3415449   -1.2822043 
C     2.7079534   -1.6699323    3.0356163 
C     1.2736151   -2.9088540   -2.4885640 
C     1.7468938    0.2348392    1.1399144 
C    -0.4496432   -1.6154743   -0.6134711 
C     3.4495760   -3.9434555    3.3247006 
C     3.3922712   -4.0274079   -2.7628545 
C     2.2253498   -4.3721393    2.5266373 
C     4.0099470   -2.8820826   -1.9718858 
C     2.8418569   -0.2834697    3.2595413 
C    -0.1128086   -2.7962950   -2.7250738 
C     2.3684112    0.6481634    2.3323357 
C    -0.9539267   -2.1600830   -1.8088212 
C     3.9323008   -2.2442066    5.0976104 
C     1.6313530   -4.2479702   -4.5281577 
C     1.8093460    3.0542940    0.4476428 
C     1.7357885    1.0038496   -1.6743144 
C    -3.2457849   -1.2763526    0.0960433 
C    -1.2064597   -1.2139048    2.2044545 
C     2.8248108    3.6869283   -0.2923960 
C     0.8690846    0.8872853   -2.7759278 
C    -3.8994443   -0.7052328   -1.0169352 
C    -1.0982990   -0.2488375    3.2234549 
C     1.3060008    3.6891065    1.6056904 
C     3.1158866    0.7615017   -1.8373393 
C    -3.9042808   -2.2738526    0.8408114 
C    -1.0603664   -2.5814011    2.5199572 
C     3.3447133    4.9192523    0.1338763 
C     1.3753780    0.5414847   -4.0355030 
C    -5.1700081   -1.1497914   -1.4000121 
C    -0.8540642   -0.6423268    4.5467737 
C     1.8298859    4.9162340    2.0303888 
C     3.6205791    0.4485097   -3.1060584 
C    -5.1809169   -2.7094818    0.4595183 
C    -0.8461875   -2.9701768    3.8483914 
C     2.8550382    5.5336839    1.2941382 
C     2.7515704    0.3318927   -4.2036824 
C    -5.8128908   -2.1550320   -0.6623775 
C    -0.7369461   -2.0035692    4.8611813 
H     4.3464692   -3.9245191    2.6681077 
H     3.6332586   -4.6737486    4.1304254 
H     3.2313019   -4.9064301   -2.1015574 
H     4.0833169   -4.3293801   -3.5677219 
H     2.4050847   -5.3154601    1.9866011 
H     1.3655226   -4.5022837    3.2080730 
H     4.9182250   -3.2027279   -1.4373942 
H     4.2615505   -2.0517094   -2.6558927 
H     3.3442108    0.0771671    4.1598430 
H    -0.5494575   -3.2335097   -3.6257370 
H     2.5189441    1.7103755    2.5385821 
H    -2.0245886   -2.1172628   -2.0247534 
H     4.1190750   -3.1399561    5.7104614 
H     3.3436355   -1.5338090    5.7030586 
H     4.9086470   -1.7736039    4.8546044 
H     1.0401015   -3.5544079   -5.1504809 
H     0.9932593   -5.1203413   -4.2721277 
H     2.4827289   -4.6026272   -5.1300443 
H     3.1994180    3.2348952   -1.2146696 
H    -0.2041277    1.0485631   -2.6319851 
H    -3.4090996    0.1009136   -1.5765252 
H    -1.1871480    0.8139276    2.9681587 
H     0.4961235    3.2161618    2.1752724 
H     3.7866230    0.8067787   -0.9727902 
H    -3.4316994   -2.7063144    1.7268821 
H    -1.0922836   -3.3323144    1.7236755 
H     4.1299725    5.4042498   -0.4552038 
H     0.6938926    0.4390377   -4.8861281 
H    -5.6679602   -0.6948334   -2.2617635 
H    -0.7569986    0.1147572    5.3316883 
H     1.4346836    5.3943658    2.9327284 
H     4.6963819    0.2908102   -3.2389492 
H    -5.6851930   -3.4832728    1.0477933 
H    -0.7619193   -4.0333738    4.0973385 
H     3.2620772    6.4959607    1.6213211 
H     3.1498376    0.0734977   -5.1905252 
H    -6.8122294   -2.4941408   -0.9538254 
H    -0.5567447   -2.3135795    5.8958167 
