115
Energy =
C    -1.4324700    3.7974174   -0.4714776 
C    -2.7307290    3.2083469   -0.4607143 
C    -3.2540752    2.5908267    0.6977580 
H    -3.2686167    3.0829102   -1.4095132 
Pd   -1.2670610    1.6382140    0.0837736 
P    -1.5302514   -0.6423733    0.5303749 
P     1.0597908    1.4579246   -0.1006409 
H    -1.0705651    4.2398075    0.4670139 
H    -2.7800736    2.8333233    1.6625516 
C     0.5514544    5.2828959   -3.9943570 
C    -0.4396727    4.2941780   -4.1177568 
C    -1.0940916    3.8072924   -2.9829329 
C    -0.7748881    4.2979644   -1.6944314 
C     0.2212756    5.2931378   -1.5871318 
C     0.8766370    5.7805400   -2.7246952 
H     1.0657117    5.6604217   -4.8841754 
H    -0.6967487    3.8965306   -5.1052399 
H    -1.8492612    3.0211325   -3.0957843 
H     0.4845284    5.6823767   -0.5977566 
H     1.6475744    6.5505757   -2.6156454 
C    -7.1357083    0.7788325    1.0422394 
C    -6.1282240    0.4925993    1.9774757 
C    -4.8707283    1.0905333    1.8588383 
C    -4.5871872    1.9753017    0.7929872 
C    -5.6119221    2.2572193   -0.1392933 
C    -6.8744961    1.6676773   -0.0115009 
H    -8.1226712    0.3149249    1.1385942 
H    -6.3236435   -0.2039241    2.7989529 
H    -4.0824359    0.8542205    2.5828902 
H    -5.4312797    2.9674441   -0.9527721 
H    -7.6612697    1.9085287   -0.7340972 
O     1.9043070   -3.3868202    1.5364639 
O     3.0865176   -2.4767880   -1.0034259 
N     3.2392323   -2.5789329    3.8788383 
N     2.0550038   -3.6112095   -3.3799392 
C     1.6178649   -1.1421153    0.8429795 
C     0.9468428   -1.7008361   -0.3732140 
C     2.1186214   -2.0548495    1.7820171 
C     1.7544074   -2.3788045   -1.3050138 
C     2.7795436   -1.6363224    2.9761361 
C     1.2124839   -2.9446682   -2.4985253 
C     1.7959612    0.2529605    1.0664457 
C    -0.4546176   -1.6062589   -0.6042317 
C     2.9183887   -3.9838407    3.6563695 
C     3.3169149   -4.0837980   -2.8233246 
C     2.8580417   -4.2544383    2.1574490 
C     3.9561288   -2.9437175   -2.0416348 
C     2.9341504   -0.2455419    3.1731222 
C    -0.1766174   -2.8111332   -2.7101871 
C     2.4614947    0.6728748    2.2330750 
C    -0.9907182   -2.1567929   -1.7826600 
C     3.7300970   -2.1707971    5.1863483 
C     1.5085658   -4.2943216   -4.5417181 
C     1.8542593    3.0616002    0.3319708 
C     1.6871458    0.9802236   -1.7532894 
C    -3.2282662   -1.2573133    0.1798371 
C    -1.1254338   -1.2105296    2.2260508 
C     2.8390591    3.6778817   -0.4613035 
C     0.7821551    0.8546527   -2.8223172 
C    -3.9158420   -0.6808797   -0.9095572 
C    -0.9521379   -2.5799946    2.5148594 
C     1.4083147    3.7139181    1.5036808 
C     3.0582857    0.7201430   -1.9592877 
C    -3.8623016   -2.2597009    0.9391457 
C    -0.9828133   -0.2578724    3.2532580 
C     3.3866881    4.9110005   -0.0740164 
C     1.2411553    0.4805777   -4.0921241 
C    -5.1977187   -1.1238937   -1.2550441 
C    -0.6695653   -2.9864394    3.8245828 
C     1.9603841    4.9414659    1.8895835 
C     3.5157156    0.3786063   -3.2384583 
C    -5.1499774   -2.6939407    0.5953973 
C    -0.6769030   -0.6684720    4.5580470 
C     2.9555414    5.5422069    1.1002690 
C     2.6081967    0.2517557   -4.3034246 
C    -5.8169612   -2.1332346   -0.5029367 
C    -0.5278686   -2.0335642    4.8458104 
H     3.7065118   -4.6098848    4.1120423 
H     1.9520958   -4.2626970    4.1244409 
H     3.1738824   -4.9672833   -2.1638457 
H     3.9863801   -4.3812088   -3.6480979 
H     3.8504649   -4.1000615    1.6916268 
H     2.5170343   -5.2806865    1.9534431 
H     4.8794446   -3.2671909   -1.5358136 
H     4.1865718   -2.1072558   -2.7254418 
H     3.4334626    0.1284476    4.0695313 
H    -0.6368148   -3.2488184   -3.5987745 
H     2.6270177    1.7365267    2.4203262 
H    -2.0652423   -2.1030517   -1.9762655 
H     4.5876269   -1.4801401    5.0918787 
H     4.0724627   -3.0638712    5.7306888 
H     2.9435510   -1.6715958    5.7885385 
H     0.8628941   -5.1567679   -4.2718963 
H     2.3428027   -4.6624921   -5.1592252 
H     0.9156195   -3.5930229   -5.1538272 
H     3.1682392    3.2117931   -1.3938777 
H    -0.2836970    1.0307420   -2.6448437 
H    -3.4431242    0.1282545   -1.4799027 
H    -1.0039113   -3.3199128    1.7098419 
H     0.6213750    3.2543365    2.1148555 
H     3.7586598    0.7738852   -1.1189830 
H    -3.3613582   -2.6970189    1.8071853 
H    -1.0905840    0.8075574    3.0175640 
H     4.1475775    5.3830623   -0.7041493 
H     0.5297243    0.3708453   -4.9169497 
H    -5.7225400   -0.6647595   -2.0984709 
H    -0.5486703   -4.0521906    4.0456478 
H     1.6104685    5.4330806    2.8033199 
H     4.5846746    0.2072445   -3.4054943 
H    -5.6352681   -3.4716037    1.1944428 
H    -0.5531156    0.0777099    5.3496140 
H     3.3845551    6.5046695    1.3974750 
H     2.9694121   -0.0292255   -5.2983230 
H    -6.8249406   -2.4710185   -0.7646983 
H    -0.2958707   -2.3552429    5.8667802 
