115
Energy =
C    -1.5201348    3.8312118   -0.5923093 
C    -2.6093326    3.0579895   -1.0604158 
C    -3.4943469    2.4174877   -0.1447008 
H    -2.7060778    2.8471739   -2.1339562 
Pd   -1.3872054    1.6608492    0.1030971 
P    -1.6085881   -0.5444424    0.8541943 
P     0.9644622    1.4462264   -0.0364873 
H    -1.5957748    4.2223232    0.4342401 
H    -3.6306664    2.9017557    0.8344035 
C     1.3028187    5.9872319   -3.0185906 
C     0.9930970    6.4168336   -1.7200718 
C     0.0833273    5.6948862   -0.9393987 
C    -0.5486021    4.5371979   -1.4454548 
C    -0.2327403    4.1209711   -2.7590028 
C     0.6871681    4.8340061   -3.5332461 
H     2.0206451    6.5461048   -3.6279769 
H     1.4690639    7.3123098   -1.3079501 
H    -0.1435957    6.0280274    0.0786535 
H    -0.6999615    3.2251917   -3.1763664 
H     0.9262396    4.4877578   -4.5441919 
C    -6.7603715   -0.0855157   -1.4060760 
C    -5.5044043   -0.2093779   -2.0233384 
C    -4.4421958    0.6075815   -1.6249235 
C    -4.6086154    1.5578776   -0.5924297 
C    -5.8752121    1.6708851    0.0198342 
C    -6.9432430    0.8627977   -0.3894526 
H    -7.5902014   -0.7294302   -1.7145822 
H    -5.3525428   -0.9550284   -2.8110324 
H    -3.4556210    0.4882423   -2.0886041 
H    -6.0205890    2.4014797    0.8237539 
H    -7.9199157    0.9666609    0.0946742 
O     1.7661217   -3.4078521    1.5677263 
O     2.7588366   -2.5687972   -1.1287266 
N     3.3850619   -2.6359355    3.7448631 
N     1.4704370   -3.4704848   -3.4789445 
C     1.5470504   -1.1677981    0.8571366 
C     0.7351182   -1.6914447   -0.2847637 
C     2.0919257   -2.0906540    1.7572596 
C     1.4183918   -2.3657374   -1.3147483 
C     2.9010579   -1.6864643    2.8625190 
C     0.7490975   -2.8065293   -2.4958327 
C     1.8094021    0.2214630    1.0330435 
C    -0.6676591   -1.4964219   -0.3927866 
C     2.9067868   -4.0084826    3.6212828 
C     2.7379220   -4.0567241   -3.0601613 
C     2.6918703   -4.3327958    2.1474497 
C     3.5119300   -3.0143327   -2.2629046 
C     3.1667167   -0.3049770    2.9960536 
C    -0.6328758   -2.5321759   -2.6052881 
C     2.6338212    0.6242099    2.0990239 
C    -1.3232722   -1.8845657   -1.5788246 
C     4.0378015   -2.2293724    4.9800149 
C     0.7960587   -4.0135327   -4.6468233 
C     1.7899869    3.0368829    0.3748277 
C     1.4805917    0.9751528   -1.7364164 
C    -3.2502339   -1.3632352    0.9993719 
C    -0.9242065   -0.9142555    2.5266325 
C     2.7869778    3.6334526   -0.4170897 
C     2.8385486    0.7311326   -2.0305600 
C    -4.2586196   -0.6509851    1.6769211 
C    -0.4747869    0.1301813    3.3538463 
C     1.3814565    3.6748139    1.5668633 
C     0.5120297    0.8072733   -2.7423582 
C    -3.4928771   -2.6938433    0.5998832 
C    -0.9282976   -2.2377116    3.0123354 
C     3.3899099    4.8305595   -0.0025482 
C     3.2190867    0.3837324   -3.3334228 
C    -5.4968700   -1.2501817    1.9355664 
C    -0.0105064   -0.1451982    4.6477520 
C     1.9947529    4.8628076    1.9830166 
C     0.8932409    0.4275946   -4.0362329 
C    -4.7373161   -3.2864396    0.8549562 
C    -0.4747972   -2.5064181    4.3086024 
C     3.0075879    5.4397104    1.2001376 
C     2.2481171    0.2293291   -4.3369971 
C    -5.7417350   -2.5664194    1.5179016 
C    -0.0114142   -1.4630711    5.1266518 
H     3.6644512   -4.6924939    4.0431641 
H     1.9596199   -4.1641566    4.1772568 
H     2.5887254   -4.9724743   -2.4482582 
H     3.3187123   -4.3373735   -3.9549300 
H     3.6498310   -4.2883189    1.5939961 
H     2.2458017   -5.3309015    2.0216293 
H     4.4479378   -3.4287236   -1.8568243 
H     3.7438257   -2.1476009   -2.9076698 
H     3.7862579    0.0549198    3.8202603 
H    -1.1808931   -2.8437572   -3.4972117 
H     2.8636512    1.6822823    2.2479264 
H    -2.3948577   -1.6993830   -1.6994488 
H     3.3546011   -1.6627439    5.6455615 
H     4.9224642   -1.6010838    4.7721297 
H     4.3790311   -3.1296856    5.5130949 
H     0.0878951   -4.8310547   -4.3950080 
H     1.5542502   -4.4101893   -5.3396929 
H     0.2381673   -3.2186740   -5.1721522 
H     3.0822399    3.1826760   -1.3682385 
H     3.5908117    0.7995077   -1.2376834 
H    -4.0684480    0.3768383    2.0036951 
H    -0.4779537    1.1579939    2.9733442 
H     0.5798708    3.2333121    2.1718292 
H    -0.5463475    0.9442672   -2.4925558 
H    -2.7110927   -3.2719418    0.0983402 
H    -1.2784277   -3.0557414    2.3754336 
H     4.1570275    5.2920483   -0.6326758 
H     4.2778669    0.2251636   -3.5652039 
H    -6.2757221   -0.6831771    2.4548537 
H     0.3498083    0.6714793    5.2815554 
H     1.6778321    5.3421464    2.9152125 
H     0.1297462    0.2827619   -4.8075570 
H    -4.9187314   -4.3190870    0.5385229 
H    -0.4893634   -3.5351002    4.6845036 
H     3.4852293    6.3713707    1.5206589 
H     2.5490612   -0.0565665   -5.3503390 
H    -6.7134486   -3.0319327    1.7127727 
H     0.3414590   -1.6773308    6.1412066 
