115
Energy =
C     1.1448219   -0.1195589   -3.9143906 
C     2.3089561   -0.8064135   -3.4617589 
C     2.2332867   -2.1029727   -2.9044082 
H     3.2584544   -0.2598512   -3.3904719 
Pd    0.9139769   -0.6344070   -1.7501000 
P     1.1098547   -1.2800915    0.4893792 
P    -0.9837684    0.6724502   -1.3342518 
H     0.3237941   -0.7285060   -4.3174073 
H     1.3205371   -2.6884668   -3.1001679 
C     1.0704648    3.9932191   -5.1915108 
C     2.0763061    3.5548759   -4.3132964 
C     2.1138683    2.2220692   -3.8943692 
C     1.1466596    1.2921648   -4.3445337 
C     0.1437563    1.7473960   -5.2284546 
C     0.1066517    3.0830149   -5.6477843 
H     1.0407549    5.0385203   -5.5159425 
H     2.8305794    4.2601539   -3.9485831 
H     2.8933014    1.9027909   -3.1932179 
H    -0.6151682    1.0427202   -5.5850180 
H    -0.6819552    3.4126020   -6.3323553 
C     5.5585818   -4.4414810   -1.5109443 
C     4.2469481   -4.7658436   -1.1288011 
C     3.1724340   -4.0008820   -1.5905206 
C     3.3866937   -2.8844334   -2.4313673 
C     4.7121395   -2.5711689   -2.8105959 
C     5.7856675   -3.3461152   -2.3578822 
H     6.3997767   -5.0445840   -1.1541827 
H     4.0633155   -5.6157173   -0.4638823 
H     2.1509404   -4.2487799   -1.2798793 
H     4.9035555   -1.7347690   -3.4907737 
H     6.8045961   -3.0985597   -2.6734753 
O    -1.9035923    2.3153877    2.7215172 
O    -2.1084613   -0.4958855    3.5778401 
N     0.2818991    3.7605924    3.7824212 
N    -4.5372114   -1.7876878    2.9364809 
C    -0.4633381    0.6985509    1.7868515 
C    -1.7075838    0.0145036    1.3115898 
C    -0.6200627    1.8881088    2.5225169 
C    -2.5348314   -0.5802151    2.2810566 
C     0.5002500    2.6064066    3.0394553 
C    -3.7519948   -1.2375302    1.9298260 
C     0.8459758    0.1866997    1.5618451 
C    -2.0975284   -0.0273329   -0.0560775 
C    -1.0436117    3.8874705    4.3772003 
C    -4.3338331   -1.2267560    4.2674277 
C    -2.0832219    3.6134209    3.2986998 
C    -2.8409249   -1.2260292    4.5682709 
C     1.7849273    2.0827645    2.7824773 
C    -4.1038487   -1.2724958    0.5640937 
C     1.9527251    0.9011407    2.0562910 
C    -3.2917874   -0.6824276   -0.4074908 
C     1.3967712    4.4420352    4.4207405 
C    -5.8344522   -2.3637254    2.6189596 
C     2.7970633   -1.8688650    0.9271692 
C    -0.0476684   -2.5755151    1.0738113 
C    -2.0266586    0.7641286   -2.8490907 
C    -0.6530722    2.3938957   -0.8070121 
C     3.8884831   -1.2360490    0.2943214 
C    -0.2155768   -2.8472370    2.4481500 
C    -2.5400051    1.9673578   -3.3664720 
C     0.6742519    2.8583082   -0.7765545 
C     3.0446767   -2.9057461    1.8474418 
C    -0.7699620   -3.3211495    0.1231904 
C    -2.2790546   -0.4433529   -3.5388729 
C    -1.7057266    3.2488008   -0.4185243 
C     5.2019645   -1.6062709    0.6047135 
C    -1.0699965   -3.8800582    2.8542143 
C    -3.3136067    1.9581461   -4.5378206 
C     0.9509816    4.1704580   -0.3715134 
C     4.3615769   -3.2800260    2.1483559 
C    -1.6471599   -4.3334668    0.5373111 
C    -3.0549333   -0.4494489   -4.7044663 
C    -1.4255276    4.5697985   -0.0461227 
C     5.4409303   -2.6289764    1.5346808 
C    -1.7908407   -4.6191950    1.9023843 
C    -3.5772001    0.7548144   -5.2056467 
C    -0.0984656    5.0296761   -0.0160090 
H    -1.1829336    3.1879718    5.2299418 
H    -1.1727982    4.9153361    4.7557793 
H    -4.7402397   -0.1951652    4.3472805 
H    -4.8545692   -1.8558517    5.0086424 
H    -3.1049714    3.6198243    3.7103895 
H    -2.0039953    4.3769303    2.5040466 
H    -2.6226638   -0.7316975    5.5283887 
H    -2.4691602   -2.2658196    4.6026462 
H     2.6687575    2.5898895    3.1757768 
H    -5.0378240   -1.7462357    0.2537590 
H     2.9662885    0.5222310    1.9019336 
H    -3.6205810   -0.7130257   -1.4488436 
H     2.1657157    4.7000262    3.6723545 
H     1.8740899    3.8355567    5.2195403 
H     1.0286885    5.3793749    4.8665170 
H    -5.7254139   -3.1450167    1.8473301 
H    -6.5650035   -1.6103261    2.2551239 
H    -6.2424280   -2.8363717    3.5261817 
H     3.7010861   -0.4564184   -0.4543273 
H     0.3042280   -2.2361870    3.1934001 
H    -2.3219147    2.9180086   -2.8727447 
H     1.4859958    2.1771635   -1.0516545 
H     2.2140547   -3.4336269    2.3235747 
H    -0.6548225   -3.0880795   -0.9420725 
H    -1.8613706   -1.3836089   -3.1575364 
H    -2.7353371    2.8762535   -0.3972973 
H     6.0390948   -1.1110687    0.1031542 
H    -1.1774957   -4.1101716    3.9195855 
H    -3.7012792    2.9025509   -4.9335905 
H     1.9872238    4.5218192   -0.3369488 
H     4.5426034   -4.0896836    2.8630741 
H    -2.2169526   -4.8994158   -0.2067947 
H    -3.2476758   -1.3929072   -5.2257400 
H    -2.2455590    5.2431580    0.2257818 
H     6.4679442   -2.9278370    1.7682831 
H    -2.4676540   -5.4163248    2.2272720 
H    -4.1794674    0.7529768   -6.1199792 
H     0.1158200    6.0593694    0.2890877 
