115
Energy =
C    -1.5396718    3.8334672   -0.5408230 
C    -2.6314695    3.0589106   -1.0002656 
C    -3.5022806    2.4082195   -0.0779388 
H    -2.7408879    2.8549874   -2.0739274 
Pd   -1.3897712    1.6585666    0.1386674 
P    -1.5942979   -0.5515415    0.8805679 
P     0.9600062    1.4498457   -0.0407377 
H    -1.6033665    4.2164957    0.4895787 
H    -3.6295078    2.8856601    0.9057125 
C     1.2479296    6.0147688   -2.9852222 
C     0.9568347    6.4309981   -1.6780646 
C     0.0582035    5.7010596   -0.8919943 
C    -0.5809006    4.5484552   -1.4007344 
C    -0.2838617    4.1457946   -2.7229027 
C     0.6248029    4.8669290   -3.5028753 
H     1.9571423    6.5798218   -3.5989753 
H     1.4387203    7.3222015   -1.2635927 
H    -0.1544351    6.0239670    0.1324086 
H    -0.7568184    3.2542506   -3.1428967 
H     0.8489637    4.5314102   -4.5208303 
C    -6.7681588   -0.1066684   -1.3161506 
C    -5.5203684   -0.2152026   -1.9526274 
C    -4.4585563    0.6058825   -1.5617929 
C    -4.6169563    1.5452014   -0.5179847 
C    -5.8754950    1.6432050    0.1130974 
C    -6.9433191    0.8309026   -0.2883292 
H    -7.5974965   -0.7541182   -1.6185184 
H    -5.3745198   -0.9519780   -2.7497714 
H    -3.4780615    0.4982073   -2.0409205 
H    -6.0146848    2.3652168    0.9258135 
H    -7.9136295    0.9229398    0.2107440 
O     1.7968693   -3.4149629    1.5128290 
O     2.7400162   -2.5536027   -1.1954797 
N     3.4501636   -2.6559718    3.6682772 
N     1.4109678   -3.4399908   -3.5288594 
C     1.5621533   -1.1700299    0.8223556 
C     0.7304199   -1.6866778   -0.3084493 
C     2.1237919   -2.0985465    1.7061488 
C     1.3960266   -2.3519433   -1.3557025 
C     2.9510378   -1.7011687    2.8004194 
C     0.7061891   -2.7852059   -2.5276843 
C     1.8258316    0.2182721    1.0037669 
C    -0.6744439   -1.4937041   -0.3893818 
C     2.9741457   -4.0290145    3.5416309 
C     2.6866740   -4.0271877   -3.1373566 
C     2.7347943   -4.3420408    2.0690953 
C     3.4732618   -2.9894567   -2.3462947 
C     3.2178194   -0.3203823    2.9390275 
C    -0.6783125   -2.5139922   -2.6092989 
C     2.6684081    0.6144292    2.0579996 
C    -1.3511083   -1.8754681   -1.5656235 
C     4.1238191   -2.2570475    4.8946706 
C     0.7165837   -3.9758733   -4.6882810 
C     1.7904807    3.0382302    0.3691058 
C     1.4463171    0.9926860   -1.7532868 
C    -3.2314902   -1.3745502    1.0499601 
C    -0.8791134   -0.9306649    2.5379277 
C     2.7769487    3.6398979   -0.4320576 
C     2.7988676    0.7518980   -2.0737871 
C    -4.2298140   -0.6680721    1.7480665 
C    -0.4165228    0.1092883    3.3634933 
C     1.3989219    3.6676175    1.5713043 
C     0.4598975    0.8319068   -2.7429353 
C    -3.4773826   -2.7041557    0.6490062 
C    -0.8718955   -2.2571997    3.0151567 
C     3.3861807    4.8337106   -0.0172885 
C     3.1560570    0.4153217   -3.3860716 
C    -5.4613443   -1.2723055    2.0265606 
C     0.0712754   -0.1733945    4.6471387 
C     2.0186949    4.8521862    1.9876309 
C     0.8178950    0.4629223   -4.0464761 
C    -4.7151929   -3.3016523    0.9238509 
C    -0.3948508   -2.5332600    4.3013728 
C     3.0209048    5.4342659    1.1950084 
C     2.1672814    0.2683437   -4.3732318 
C    -5.7096167   -2.5875809    1.6080111 
C     0.0811470   -1.4942363    5.1176644 
H     3.7410318   -4.7140790    3.9447447 
H     2.0371928   -4.1922272    4.1125371 
H     2.5499984   -4.9477973   -2.5297975 
H     3.2516360   -4.3000498   -4.0445536 
H     3.6829859   -4.2905632    1.4996401 
H     2.2892392   -5.3403325    1.9429833 
H     4.4170735   -3.4052817   -1.9602098 
H     3.6921993   -2.1175866   -2.9886433 
H     3.8513018    0.0343430    3.7548369 
H    -1.2421976   -2.8213807   -3.4927328 
H     2.8997661    1.6716980    2.2101889 
H    -2.4252423   -1.6924947   -1.6647168 
H     5.0070224   -1.6303227    4.6758140 
H     4.4705445   -3.1607874    5.4182776 
H     3.4528536   -1.6915243    5.5734119 
H     0.1460197   -3.1787445   -5.1962148 
H     0.0162923   -4.7981850   -4.4300951 
H     1.4629883   -4.3637831   -5.3987033 
H     3.0589992    3.1956568   -1.3902543 
H     3.5651873    0.8140062   -1.2939866 
H    -4.0370701    0.3592001    2.0751469 
H    -0.4277431    1.1394334    2.9895006 
H     0.6054945    3.2220586    2.1840063 
H    -0.5938882    0.9661386   -2.4728887 
H    -2.7030484   -3.2775776    0.1307765 
H    -1.2315270   -3.0719307    2.3793231 
H     4.1448362    5.2994014   -0.6545369 
H     4.2105711    0.2593299   -3.6381486 
H    -6.2325110   -0.7099144    2.5621149 
H     0.4414237    0.6399438    5.2795690 
H     1.7149792    5.3248963    2.9275723 
H     0.0407063    0.3236795   -4.8050406 
H    -4.8992619   -4.3334277    0.6061140 
H    -0.4007113   -3.5643599    4.6708205 
H     3.5036142    6.3632484    1.5157127 
H     2.4501326   -0.0089531   -5.3941474 
H    -6.6761684   -3.0570035    1.8185443 
H     0.4524363   -1.7142202    6.1243879 
