115
Energy =
C     1.1716724   -0.1189006   -3.8989998 
C     2.3167353   -0.8368175   -3.4458691 
C     2.2085612   -2.1362130   -2.9003673 
H     3.2779562   -0.3129566   -3.3630932 
Pd    0.9155971   -0.6495899   -1.7406930 
P     1.0859943   -1.3188376    0.4948079 
P    -0.9575293    0.6894881   -1.3185581 
H     0.3390651   -0.7045950   -4.3124663 
H     1.2846700   -2.6999286   -3.1074634 
C     1.1940278    4.0102899   -5.1257911 
C     2.1947271    3.5352970   -4.2608928 
C     2.2016361    2.1966638   -3.8592059 
C     1.2080024    1.2970863   -4.3137218 
C     0.2116613    1.7887178   -5.1856592 
C     0.2049679    3.1302619   -5.5871692 
H     1.1881810    5.0602173   -5.4362740 
H     2.9693939    4.2165013   -3.8931130 
H     2.9781890    1.8493322   -3.1682737 
H    -0.5668786    1.1080994   -5.5465917 
H    -0.5796977    3.4880839   -6.2619921 
C     5.4727619   -4.5552370   -1.4992834 
C     4.1517835   -4.8532451   -1.1280200 
C     3.0973390   -4.0625912   -1.5926564 
C     3.3414609   -2.9463233   -2.4255364 
C     4.6759126   -2.6599885   -2.7941978 
C     5.7292816   -3.4605629   -2.3386527 
H     6.2982455   -5.1782787   -1.1400860 
H     3.9451505   -5.7025930   -0.4691971 
H     2.0687222   -4.2898487   -1.2898835 
H     4.8900844   -1.8241834   -3.4683083 
H     6.7554503   -3.2335816   -2.6461527 
O    -1.8728651    2.3415097    2.7055322 
O    -2.1735347   -0.4541505    3.5811469 
N     0.3307199    3.7501581    3.7559446 
N    -4.6022629   -1.7310941    2.9002861 
C    -0.4624544    0.6726260    1.8010325 
C    -1.7186485    0.0204275    1.3144360 
C    -0.6008331    1.8608846    2.5349037 
C    -2.5730999   -0.5494138    2.2745702 
C     0.5230095    2.5765309    3.0469612 
C    -3.7942477   -1.1901560    1.9072290 
C     0.8390160    0.1379455    1.5813105 
C    -2.0927832   -0.0093217   -0.0577153 
C    -1.0097717    4.3211193    3.8097144 
C    -4.4025910   -1.1959089    4.2418697 
C    -2.0335747    3.1924191    3.8443984 
C    -2.9111866   -1.2079953    4.5505579 
C     1.8020164    2.0290178    2.7988317 
C    -4.1268145   -1.2213812    0.5359667 
C     1.9512220    0.8337484    2.0918088 
C    -3.2942370   -0.6422905   -0.4245402 
C     1.4626813    4.5943886    4.1054887 
C    -5.9023902   -2.2893562    2.5632862 
C     2.7589825   -1.9419665    0.9391278 
C    -0.0981248   -2.5999290    1.0589455 
C    -1.9932775    0.8343803   -2.8333179 
C    -0.5974543    2.3948797   -0.7558846 
C     3.8660588   -1.3279192    0.3153716 
C    -0.2901781   -2.8712429    2.4301732 
C    -2.4835267    2.0604050   -3.3186041 
C    -1.6315356    3.2434910   -0.3098078 
C     2.9805948   -2.9856315    1.8583011 
C    -0.8160976   -3.3345755    0.0967742 
C    -2.2670330   -0.3498656   -3.5541323 
C     0.7348973    2.8474361   -0.7460867 
C     5.1701969   -1.7247996    0.6322861 
C    -1.1636592   -3.8935740    2.8221060 
C    -3.2542182    2.0966190   -4.4912424 
C    -1.3297706    4.5440573    0.1119103 
C     4.2881061   -3.3863848    2.1659621 
C    -1.7117672   -4.3367381    0.4962565 
C    -3.0412877   -0.3107032   -4.7202807 
C     1.0329962    4.1425871   -0.3042552 
C     5.3835365   -2.7548549    1.5603688 
C    -1.8790446   -4.6228363    1.8585287 
C    -3.5390151    0.9161185   -5.1906983 
C     0.0005988    4.9938489    0.1173694 
H    -1.1036807    4.9321588    4.7251868 
H    -1.2101582    4.9780342    2.9386853 
H    -4.8046149   -0.1640954    4.3399111 
H    -4.9305674   -1.8360042    4.9685989 
H    -1.9222589    2.5923772    4.7683666 
H    -3.0598004    3.5860899    3.7886575 
H    -2.6958175   -0.7377361    5.5230584 
H    -2.5425013   -2.2493136    4.5607909 
H     2.6956871    2.5390580    3.1649174 
H    -5.0637544   -1.6805392    0.2130683 
H     2.9601858    0.4405566    1.9415949 
H    -3.6120837   -0.6640030   -1.4695574 
H     2.1984276    4.0384444    4.7138115 
H     1.0993227    5.4425296    4.7055441 
H     1.9797212    4.9932874    3.2084245 
H    -6.6179103   -1.5252150    2.1923430 
H    -6.3287062   -2.7592406    3.4634358 
H    -5.7936420   -3.0697531    1.7906170 
H     3.6981883   -0.5420003   -0.4313091 
H     0.2272152   -2.2680943    3.1837309 
H    -2.2503891    2.9927224   -2.7971944 
H    -2.6625688    2.8772044   -0.2699213 
H     2.1367832   -3.4978016    2.3284689 
H    -0.6826924   -3.1012952   -0.9663088 
H    -1.8675684   -1.3073785   -3.1970297 
H     1.5332329    2.1703924   -1.0662528 
H     6.0198586   -1.2443996    0.1374307 
H    -1.2899189   -4.1237343    3.8854452 
H    -3.6240033    3.0580235   -4.8624676 
H    -2.1354827    5.2047732    0.4493030 
H     4.4491378   -4.2011317    2.8796874 
H    -2.2774124   -4.8945323   -0.2571310 
H    -3.2514836   -1.2363384   -5.2661798 
H     2.0723314    4.4862624   -0.2887005 
H     6.4031176   -3.0742681    1.7992959 
H    -2.5702122   -5.4121752    2.1720619 
H    -4.1393826    0.9496330   -6.1056720 
H     0.2329282    6.0092266    0.4564588 
