115
Energy =
C    -1.4418276    3.7618614   -0.5834196 
C    -2.7402760    3.1737676   -0.5811914 
C    -3.2864186    2.5877845    0.5833572 
H    -3.2603693    3.0223554   -1.5360102 
Pd   -1.2907648    1.6169323    0.0357855 
P    -1.5630369   -0.6506540    0.5438764 
P     1.0396555    1.4281893   -0.0858767 
H    -1.0960785    4.2271834    0.3499613 
H    -2.8317289    2.8573224    1.5502381 
C     0.6179938    5.1486477   -4.1033358 
C    -0.3928851    4.1798819   -4.2243254 
C    -1.0721754    3.7249197   -3.0908385 
C    -0.7593051    4.2289078   -1.8058300 
C     0.2558582    5.2052805   -1.7013519 
C     0.9368567    5.6597649   -2.8373996 
H     1.1518325    5.5007849   -4.9920174 
H    -0.6463920    3.7728506   -5.2089299 
H    -1.8430115    2.9539836   -3.2025190 
H     0.5130258    5.6065374   -0.7152102 
H     1.7220360    6.4155220   -2.7301318 
C    -7.1772638    0.7912511    0.9049722 
C    -6.1887928    0.5320425    1.8679718 
C    -4.9281419    1.1245405    1.7560187 
C    -4.6222116    1.9766774    0.6699305 
C    -5.6279434    2.2315512   -0.2903830 
C    -6.8938085    1.6475537   -0.1697549 
H    -8.1667422    0.3316001    0.9957694 
H    -6.4014754   -0.1392159    2.7059989 
H    -4.1544015    0.9088385    2.5018287 
H    -5.4303499    2.9169885   -1.1209923 
H    -7.6657943    1.8673468   -0.9146655 
O     1.9502707   -3.3845768    1.5877139 
O     3.0950639   -2.4165424   -0.9496285 
N     3.2377312   -2.5403429    3.9587754 
N     2.0964012   -3.5979734   -3.3058721 
C     1.5904455   -1.1505006    0.9170333 
C     0.9303997   -1.7207646   -0.2992876 
C     2.1022950   -2.0522569    1.8664862 
C     1.7525307   -2.3846078   -1.2229737 
C     2.7480587   -1.6027663    3.0572244 
C     1.2392865   -2.9641360   -2.4222590 
C     1.7490138    0.2476299    1.1264321 
C    -0.4706562   -1.6452270   -0.5429527 
C     3.4927137   -3.8693682    3.4157003 
C     3.5327293   -3.5024815   -3.0740256 
C     2.2657849   -4.3145764    2.6305682 
C     3.7981547   -3.4955409   -1.5730171 
C     2.8707314   -0.2093538    3.2457829 
C    -0.1526804   -2.8595914   -2.6430340 
C     2.3829418    0.6952343    2.2997105 
C    -0.9848598   -2.2240542   -1.7186831 
C     3.9931611   -2.1105523    5.1249206 
C     1.6284333   -4.0082583   -4.6208108 
C     1.8308894    3.0375943    0.3293409 
C     1.7057606    0.9127307   -1.7124145 
C    -3.2562074   -1.2753908    0.1864332 
C    -1.1925578   -1.1545847    2.2673808 
C     2.8491466    3.6196924   -0.4474311 
C     3.0723411    0.6024115   -1.8695239 
C    -3.9252085   -0.7327669   -0.9314983 
C    -1.0312521   -2.5114959    2.6189200 
C     1.3517856    3.7283693    1.4651359 
C     0.8306921    0.8028811   -2.8088198 
C    -3.9034507   -2.2538914    0.9654367 
C    -1.0867307   -0.1612583    3.2588925 
C     3.3939394    4.8600000   -0.0800153 
C     3.5572136    0.2161493   -3.1249524 
C    -5.2012548   -1.1862897   -1.2847287 
C    -0.8047076   -2.8620900    3.9559059 
C     1.9015437    4.9629570    1.8317658 
C     1.3177566    0.3965667   -4.0575212 
C    -5.1855034   -2.6984286    0.6137838 
C    -0.8310034   -0.5163357    4.5910070 
C     2.9276022    5.5312591    1.0582718 
C     2.6819290    0.1108325   -4.2181352 
C    -5.8335353   -2.1720685   -0.5124806 
C    -0.6989841   -1.8673307    4.9415316 
H     4.3911783   -3.8837148    2.7610320 
H     3.6680136   -4.5722009    4.2474616 
H     4.0295401   -4.3762840   -3.5321375 
H     3.9612197   -2.5873768   -3.5315460 
H     2.4352352   -5.2807287    2.1294532 
H     1.4013785   -4.4057153    3.3124294 
H     3.4801959   -4.4524636   -1.1155335 
H     4.8648413   -3.3280850   -1.3600152 
H     3.3788714    0.1776406    4.1317380 
H    -0.5964987   -3.2828456   -3.5467273 
H     2.5315263    1.7632087    2.4756891 
H    -2.0577273   -2.1851850   -1.9251125 
H     3.4043054   -1.3877604    5.7154295 
H     4.9643542   -1.6404675    4.8616843 
H     4.1907210   -2.9879685    5.7604670 
H     2.4455423   -4.5325125   -5.1393707 
H     1.3145851   -3.1437335   -5.2416228 
H     0.7758860   -4.7059012   -4.5379292 
H     3.2068443    3.1201825   -1.3519295 
H     3.7456681    0.6394085   -1.0069337 
H    -3.4424170    0.0582334   -1.5186233 
H    -1.0625022   -3.2837817    1.8430772 
H     0.5405871    3.2938471    2.0627535 
H    -0.2334353    1.0179490   -2.6688570 
H    -3.4174566   -2.6644346    1.8547420 
H    -1.1868269    0.8932673    2.9752474 
H     4.1811489    5.3057857   -0.6968398 
H     4.6207563   -0.0152290   -3.2470879 
H    -5.7115938   -0.7533674   -2.1505890 
H    -0.7085218   -3.9172662    4.2331989 
H     1.5253949    5.4856144    2.7174177 
H     0.6310185    0.3025976   -4.9049786 
H    -5.6813247   -3.4569950    1.2284908 
H    -0.7366230    0.2626055    5.3545914 
H     3.3542399    6.4994960    1.3397419 
H     3.0641470   -0.2000875   -5.1964830 
H    -6.8368746   -2.5182460   -0.7810025 
H    -0.5096152   -2.1473887    5.9830602 
