115
Energy =
C    -1.4442227    3.7762348   -0.4652483 
C    -2.7412460    3.1849524   -0.4426268 
C    -3.2552160    2.5679156    0.7203805 
H    -3.2864152    3.0562425   -1.3867731 
Pd   -1.2719053    1.6175710    0.0946626 
P    -1.5311703   -0.6641413    0.5429435 
P     1.0540390    1.4363336   -0.0950682 
H    -1.0746296    4.2203985    0.4692934 
H    -2.7757434    2.8127948    1.6818756 
C     0.5119286    5.2549600   -4.0070653 
C    -0.4956946    4.2821234   -4.1225341 
C    -1.1410956    3.7972757   -2.9816416 
C    -0.7968884    4.2748042   -1.6945407 
C     0.2149208    5.2551503   -1.5954608 
C     0.8620013    5.7395543   -2.7389718 
H     1.0191406    5.6306453   -4.9016824 
H    -0.7733245    3.8955330   -5.1088748 
H    -1.9096447    3.0234960   -3.0896191 
H     0.4968242    5.6355462   -0.6078367 
H     1.6454497    6.4976652   -2.6358017 
C    -7.1297379    0.7445848    1.0874372 
C    -6.1151933    0.4590788    2.0152446 
C    -4.8603676    1.0612309    1.8898822 
C    -4.5864641    1.9493374    0.8243256 
C    -5.6183048    2.2307281   -0.1002102 
C    -6.8782608    1.6370551    0.0344280 
H    -8.1146453    0.2774764    1.1891831 
H    -6.3029201   -0.2403691    2.8360368 
H    -4.0666251    0.8252246    2.6080325 
H    -5.4451551    2.9435379   -0.9130638 
H    -7.6705597    1.8774745   -0.6822495 
O     1.9447460   -3.4051097    1.5318093 
O     3.1005575   -2.4322885   -1.0331342 
N     3.2342631   -2.5851242    3.9011746 
N     2.0735753   -3.5226500   -3.4251857 
C     1.6208752   -1.1594790    0.8555373 
C     0.9480888   -1.7146700   -0.3609679 
C     2.1324104   -2.0707813    1.7906661 
C     1.7570993   -2.3707960   -1.3021578 
C     2.7751216   -1.6465508    2.9927467 
C     1.2290851   -2.9096569   -2.5140328 
C     1.7881633    0.2363854    1.0797577 
C    -0.4545547   -1.6262623   -0.5891118 
C     2.9058321   -3.9884337    3.6831490 
C     3.5120054   -3.4287869   -3.2090190 
C     2.8810635   -4.2686169    2.1853068 
C     3.7952815   -3.4832225   -1.7126677 
C     2.9141410   -0.2545253    3.1932076 
C    -0.1637491   -2.7883865   -2.7207161 
C     2.4436009    0.6614690    2.2500283 
C    -0.9843711   -2.1735293   -1.7726131 
C     3.7031196   -2.1721098    5.2152422 
C     1.5904790   -3.8862714   -4.7483999 
C     1.8575908    3.0384691    0.3247440 
C     1.6807534    0.9476844   -1.7456509 
C    -3.2286154   -1.2812066    0.1930161 
C    -1.1269985   -1.2314135    2.2394842 
C     2.8514962    3.6350207   -0.4723039 
C     3.0427170    0.6363353   -1.9379295 
C    -3.9192523   -0.7018189   -0.8927694 
C    -0.9473952   -2.6003773    2.5271519 
C     1.4136316    3.7085724    1.4869064 
C     0.7825214    0.8624189   -2.8250929 
C    -3.8589678   -2.2882631    0.9491748 
C    -0.9958661   -0.2798448    3.2690114 
C     3.4077961    4.8685404   -0.0992501 
C     3.4997501    0.2743557   -3.2108678 
C    -5.2013690   -1.1451918   -1.2369357 
C    -0.6732372   -3.0075524    3.8384416 
C     1.9751071    4.9361660    1.8591290 
C     1.2417783    0.4797577   -4.0919284 
C    -5.1466867   -2.7232373    0.6065321 
C    -0.6968314   -0.6909148    4.5753937 
C     2.9773237    5.5185930    1.0651143 
C     2.6011229    0.1934670   -4.2872999 
C    -5.8172956   -2.1585969   -0.4875722 
C    -0.5439744   -2.0556401    4.8623741 
H     3.6772296   -4.6176347    4.1620422 
H     1.9258979   -4.2558392    4.1288142 
H     4.0069841   -4.2806189   -3.7083315 
H     3.9309326   -2.4936088   -3.6332843 
H     3.8869593   -4.1187654    1.7472014 
H     2.5443640   -5.2957849    1.9784465 
H     3.4827702   -4.4603276   -1.2953728 
H     4.8643815   -3.3248464   -1.5044786 
H     3.4015403    0.1220452    4.0950161 
H    -0.6172119   -3.1837427   -3.6321721 
H     2.6010666    1.7261417    2.4384173 
H    -2.0591483   -2.1243087   -1.9668636 
H     4.5503103   -1.4678381    5.1311560 
H     4.0544505   -3.0608804    5.7610360 
H     2.9022488   -1.6869371    5.8102863 
H     0.7335556   -4.5799222   -4.6798413 
H     2.3987993   -4.3997790   -5.2909812 
H     1.2776822   -2.9998563   -5.3382596 
H     3.1814694    3.1518740   -1.3960339 
H     3.7343543    0.6555786   -1.0892737 
H    -3.4487377    0.1099442   -1.4612239 
H    -0.9904117   -3.3391129    1.7203774 
H     0.6209802    3.2632128    2.1011901 
H    -0.2776122    1.0783536   -2.6586291 
H    -3.3551327   -2.7286708    1.8139878 
H    -1.1075285    0.7853993    3.0343185 
H     4.1757355    5.3256639   -0.7318538 
H     4.5601159    0.0444703   -3.3605691 
H    -5.7289018   -0.6833383   -2.0771903 
H    -0.5508286   -4.0732200    4.0592261 
H     1.6266453    5.4423947    2.7654096 
H     0.5369717    0.4053619   -4.9263861 
H    -5.6291755   -3.5045215    1.2031188 
H    -0.5821863    0.0547106    5.3688697 
H     3.4131691    6.4813442    1.3512523 
H     2.9615820   -0.0984823   -5.2796522 
H    -6.8253507   -2.4968852   -0.7483957 
H    -0.3187768   -2.3779151    5.8846768 
