118
Energy =
C     3.0731521   -1.6598447   -1.1873888 
C     3.4202074   -1.2629802    0.1159098 
C     2.7228562   -1.7932855    1.2585935 
H     4.1191942   -0.4261826    0.2438729 
Pd    1.2543594   -0.7880319   -0.0331185 
P    -0.6766688   -1.2424315    1.2238919 
P     0.2386776    0.8977981   -1.3519666 
H     2.4234989   -2.5445556   -1.2896977 
H     2.4465788   -2.8548850    1.2443310 
C     4.8129243   -0.3660106   -4.8879731 
C     5.5355863   -0.2136898   -3.6935258 
C     4.9783980   -0.6189538   -2.4760024 
C     3.6897278   -1.1997249   -2.4365380 
C     2.9802898   -1.3611032   -3.6503535 
C     3.5312473   -0.9386038   -4.8628781 
H     5.2522114   -0.0462278   -5.8385140 
H     6.5417877    0.2175680   -3.7132691 
H     5.5595028   -0.5146863   -1.5538962 
H     1.9789602   -1.8060550   -3.6277380 
H     2.9633875   -1.0551992   -5.7912123 
C     2.7972048    0.0648165    5.1502009 
C     3.1657195    0.8030725    4.0127664 
C     3.1717264    0.1985191    2.7518918 
C     2.8084056   -1.1632538    2.5922158 
C     2.4632009   -1.8975005    3.7510562 
C     2.4530862   -1.2887149    5.0120747 
H     2.7880076    0.5394544    6.1367833 
H     3.4469901    1.8572596    4.1086362 
H     3.4481510    0.7977931    1.8781127 
H     2.1895696   -2.9523749    3.6576875 
H     2.1728196   -1.8778737    5.8912914 
C     0.5919889    1.9412219   -4.0426561 
C     1.3943384    2.5387943   -5.0261459 
C     2.7682519    2.7598853   -4.8196770 
C     3.6396483    3.3773917   -5.8878013 
C     3.3185590    2.3724430   -3.5799212 
C     2.5336211    1.7572170   -2.6042650 
C     1.1595896    1.5228926   -2.8246893 
C     0.2798265    2.4640579   -0.3842765 
C     0.9647952    2.5032619    0.8416344 
C     1.1347326    3.7139361    1.5225244 
C     0.6218864    4.9175431    1.0046262 
C     0.7444305    6.2120067    1.7737391 
C    -0.0338192    4.8742481   -0.2450959 
C    -0.1882778    3.6720555   -0.9415439 
C    -1.4583399    0.4616763   -1.9198244 
C    -1.4748420   -0.2540895   -3.1454307 
C    -2.6478380   -0.8057140   -3.6677502 
C    -3.8446988   -0.7027988   -2.9476851 
C    -3.8365973   -0.0579413   -1.7080320 
C    -5.0220027    0.1179558   -0.7870049 
C    -4.3752046    0.5502310    0.5390026 
C    -2.6627470    0.5290630   -1.1717316 
C    -3.0297773    1.2439375    0.1368147 
C    -2.1031413    1.3040380    1.3565348 
C    -2.2626780    2.5615439    1.9892189 
C    -3.2017066    3.4585129    1.2148645 
C    -3.3109651    2.7579611   -0.1505557 
C    -1.6055907    2.8774448    3.1817470 
C    -0.7272151    1.9412457    3.7441261 
C    -0.5411316    0.7014961    3.1265266 
C    -1.2618114    0.3352353    1.9586661 
C    -0.5237024   -2.4738244    2.5921975 
C     0.0114629   -3.7257068    2.2152796 
C     0.1087507   -4.7697001    3.1372376 
C    -0.3263275   -4.6062782    4.4713141 
C    -0.1884099   -5.7308438    5.4708225 
C    -0.8889415   -3.3675519    4.8281757 
C    -0.9971704   -2.3152480    3.9058325 
C    -1.9425055   -2.1572090    0.2560187 
C    -1.6077829   -2.6725347   -1.0081507 
C    -2.4982667   -3.5124655   -1.6874438 
C    -3.7432998   -3.8578093   -1.1297820 
C    -4.7306606   -4.7059328   -1.8962389 
C    -4.0510970   -3.3696901    0.1585169 
C    -3.1587098   -2.5487434    0.8529917 
H    -0.4790165    1.8210304   -4.2306671 
H     0.9337246    2.8517043   -5.9701267 
H     3.0401164    3.8038268   -6.7083095 
H     4.3150801    2.6161376   -6.3219620 
H     4.2779793    4.1760421   -5.4710574 
H     4.3812075    2.5464409   -3.3815123 
H     2.9835770    1.4701274   -1.6466452 
H     1.3532603    1.5747629    1.2740285 
H     1.6618168    3.7158299    2.4830411 
H     0.7962176    7.0828727    1.0990835 
H    -0.1376708    6.3543466    2.4277581 
H     1.6373683    6.2164147    2.4208732 
H    -0.4147173    5.8022288   -0.6865316 
H    -0.6550144    3.6760861   -1.9326761 
H    -0.5389255   -0.3963356   -3.6953595 
H    -2.6176945   -1.3368564   -4.6246294 
H    -4.7697321   -1.1431879   -3.3345673 
H    -5.7020909    0.8957400   -1.1846912 
H    -5.6139689   -0.8089792   -0.6908315 
H    -5.0061089    1.2224716    1.1433306 
H    -4.1532087   -0.3335383    1.1542368 
H    -2.8172503    4.4901594    1.1332373 
H    -4.1822559    3.5181227    1.7254639 
H    -4.2868238    2.8967687   -0.6441917 
H    -2.5384853    3.1437334   -0.8311279 
H    -1.7497883    3.8580696    3.6475925 
H    -0.1596287    2.1796373    4.6492968 
H     0.2029572    0.0149361    3.5439933 
H     0.3365996   -3.8868986    1.1803435 
H     0.5270654   -5.7312171    2.8185295 
H     0.8749729   -5.9024285    5.7216716 
H    -0.5807450   -6.6779331    5.0604340 
H    -0.7253930   -5.5100121    6.4073450 
H    -1.2588523   -3.2183738    5.8488597 
H    -1.4582531   -1.3758479    4.2229115 
H    -0.6462839   -2.4065288   -1.4623892 
H    -2.2244543   -3.8957382   -2.6764468 
H    -5.3713175   -5.2961103   -1.2199858 
H    -4.2210161   -5.3970131   -2.5882480 
H    -5.3966507   -4.0627585   -2.5035473 
H    -4.9979029   -3.6539874    0.6315477 
H    -3.3960770   -2.2310727    1.8739717 
