118
Energy =
C     2.5894288   -1.4931544   -1.8130511 
C     2.6772508   -2.2171028   -0.5935790 
C     1.5747325   -2.9842141   -0.1378837 
H     3.5595849   -2.0966643    0.0459829 
Pd    1.0372054   -0.7706849   -0.3343420 
P    -0.6744652   -0.8353119    1.2899402 
P     0.4385068    1.2394934   -1.3413412 
H     1.8352091   -1.8467343   -2.5320365 
H     0.8498882   -3.2980383   -0.9021557 
C     5.7850190    0.6791498   -3.6960802 
C     5.8316880    0.4436638   -2.3114278 
C     4.7878226   -0.2347929   -1.6752487 
C     3.6769754   -0.7056943   -2.4139051 
C     3.6356374   -0.4419613   -3.8022793 
C     4.6783415    0.2407613   -4.4376969 
H     6.6051681    1.2093670   -4.1912217 
H     6.6880549    0.7933934   -1.7253717 
H     4.8345113   -0.3980780   -0.5931865 
H     2.7788359   -0.7911117   -4.3892609 
H     4.6263215    0.4313309   -5.5143523 
C     1.4722686   -5.4806411    3.3606583 
C     2.5009599   -4.5350966    3.2132690 
C     2.5338490   -3.6930356    2.0986690 
C     1.5439096   -3.7888849    1.0929929 
C     0.5051332   -4.7338630    1.2632792 
C     0.4692671   -5.5705515    2.3846981 
H     1.4526165   -6.1399029    4.2346467 
H     3.2823292   -4.4526855    3.9755928 
H     3.3379300   -2.9562417    2.0113107 
H    -0.2763244   -4.8143974    0.5005318 
H    -0.3398288   -6.3005104    2.4918053 
C     1.0510382    2.2865538   -3.9625526 
C     1.9032895    2.9752852   -4.8391011 
C     3.1847594    3.3942175   -4.4379094 
C     4.1181494    4.1054206   -5.3888085 
C     3.5907790    3.1090254   -3.1167152 
C     2.7591350    2.4105668   -2.2414389 
C     1.4782345    1.9860671   -2.6563841 
C     0.1030820    2.7502994   -0.3637657 
C     0.5263858    2.8180361    0.9754487 
C     0.3705600    3.9994687    1.7068618 
C    -0.2086691    5.1443756    1.1248839 
C    -0.4388145    6.3929126    1.9426453 
C    -0.5857929    5.0806741   -0.2326583 
C    -0.4180958    3.9078640   -0.9758654 
C    -1.0376857    0.4842662   -2.1555712 
C    -0.7008807   -0.3072790   -3.2875462 
C    -1.6355539   -1.1364941   -3.9145146 
C    -2.9446269   -1.2092333   -3.4179383 
C    -3.2830966   -0.4623675   -2.2860622 
C    -4.6372593   -0.4131161   -1.6183048 
C    -4.3258067    0.2213821   -0.2532118 
C    -2.3454653    0.3707799   -1.6252593 
C    -3.0555599    1.1133251   -0.4889243 
C    -2.4403783    1.4373917    0.8824366 
C    -2.9850070    2.6646512    1.3285875 
C    -3.8216638    3.3349826    0.2626164 
C    -3.5015484    2.5227614   -1.0031406 
C    -2.7815754    3.1363919    2.6305041 
C    -2.0281768    2.3665622    3.5222653 
C    -1.4550018    1.1635704    3.0925297 
C    -1.6332306    0.6783430    1.7752368 
C     0.1792613   -1.3305325    2.8428691 
C     1.3784241   -0.6515591    3.1521826 
C     2.0697753   -0.9233428    4.3375380 
C     1.6050507   -1.8992017    5.2413558 
C     2.3676837   -2.2304101    6.5025290 
C     0.4286137   -2.5971472    4.9061923 
C    -0.2780952   -2.3224010    3.7291961 
C    -1.9666686   -2.0847807    0.9350982 
C    -1.9945366   -2.7346916   -0.3111647 
C    -3.0065477   -3.6562292   -0.6102215 
C    -4.0186948   -3.9550329    0.3216173 
C    -5.0965804   -4.9675930    0.0131295 
C    -3.9995890   -3.2769047    1.5605693 
C    -2.9999833   -2.3472122    1.8621095 
H     0.0510723    1.9991154   -4.3022711 
H     1.5565953    3.1974751   -5.8547622 
H     3.6111972    4.3864331   -6.3260536 
H     4.9743347    3.4538507   -5.6469809 
H     4.5347012    5.0197320   -4.9307845 
H     4.5820522    3.4255459   -2.7755753 
H     3.0996114    2.1980138   -1.2218316 
H     0.9680941    1.9353051    1.4472283 
H     0.6930250    4.0286709    2.7531633 
H    -0.5464271    7.2853668    1.3046440 
H    -1.3675041    6.2927533    2.5371485 
H     0.3856062    6.5679287    2.6545824 
H    -1.0050034    5.9688614   -0.7187074 
H    -0.6752709    3.8988160   -2.0405926 
H     0.3223558   -0.2752531   -3.6752393 
H    -1.3376897   -1.7242931   -4.7889376 
H    -3.6904818   -1.8503524   -3.8997558 
H    -5.3284359    0.2125325   -2.2157405 
H    -5.0996055   -1.4112368   -1.5302173 
H    -5.1573818    0.8127065    0.1640411 
H    -4.0821826   -0.5667636    0.4742553 
H    -3.5735762    4.4055520    0.1544631 
H    -4.8948979    3.2790467    0.5279590 
H    -4.3468489    2.4442185   -1.7064650 
H    -2.6630811    2.9835360   -1.5466224 
H    -3.2173783    4.0911264    2.9442683 
H    -1.8679158    2.7032679    4.5516353 
H    -0.8455052    0.5937117    3.7977958 
H     1.7722984    0.0994866    2.4562506 
H     2.9913710   -0.3739487    4.5606194 
H     3.0813121   -1.4337447    6.7688161 
H     2.9434422   -3.1663771    6.3704742 
H     1.6851242   -2.3876681    7.3551844 
H     0.0585793   -3.3820789    5.5750708 
H    -1.1747218   -2.9028438    3.4998257 
H    -1.2410877   -2.4896122   -1.0676776 
H    -3.0173049   -4.1380295   -1.5941861 
H    -6.0859641   -4.6170456    0.3539608 
H    -4.8921440   -5.9210267    0.5355814 
H    -5.1541382   -5.1836663   -1.0661811 
H    -4.7927146   -3.4683190    2.2921894 
H    -3.0409745   -1.7982453    2.8091239 
