118
Energy =
C    -0.4064109   -1.7523320   -3.0000398 
C    -0.4465191   -0.4139488   -3.4754610 
C     0.6652385    0.4455619   -3.2839148 
H    -1.3775966   -0.0157738   -3.8956374 
Pd   -0.1884683   -0.2848879   -1.2922585 
P     0.5620775    1.5801644   -0.0551609 
P    -0.6072349   -1.7040324    0.5031461 
H     0.5951698   -2.1810995   -2.8459217 
H     1.6370066   -0.0426085   -3.1244533 
C    -3.4134143   -4.7548346   -3.6493765 
C    -3.7674437   -3.3965389   -3.7167939 
C    -2.8105937   -2.4050736   -3.4796023 
C    -1.4715307   -2.7506609   -3.1813962 
C    -1.1369478   -4.1217468   -3.0967979 
C    -2.0957111   -5.1134903   -3.3301174 
H    -4.1650834   -5.5285395   -3.8373642 
H    -4.7973584   -3.1106680   -3.9548290 
H    -3.1071403   -1.3515718   -3.5239532 
H    -0.1068401   -4.4085938   -2.8578969 
H    -1.8134840   -6.1688761   -3.2615894 
C     1.0548552    4.4778885   -4.7235776 
C     2.1685607    3.7785391   -4.2366229 
C     2.0200070    2.4745147   -3.7503985 
C     0.7551447    1.8412041   -3.7396914 
C    -0.3623693    2.5690042   -4.2109308 
C    -0.2104812    3.8675767   -4.7039619 
H     1.1686442    5.4948460   -5.1129895 
H     3.1585888    4.2462105   -4.2426713 
H     2.8948132    1.9306969   -3.3790380 
H    -1.3594262    2.1189504   -4.1942816 
H    -1.0860929    4.4105683   -5.0739648 
C     2.9711450    2.9996223    0.3946273 
C     4.3556209    3.1790797    0.3220509 
C     5.1861439    2.2212658   -0.3012056 
C     6.6797638    2.4332331   -0.3825320 
C     4.5788524    1.0698529   -0.8371916 
C     3.1907221    0.8882313   -0.7793358 
C     2.3683104    1.8591444   -0.1817304 
C    -0.2873479    3.0190141   -0.8257737 
C    -1.6713108    2.8816116   -1.0718607 
C    -2.4124819    3.9414797   -1.6048518 
C    -1.7955551    5.1641785   -1.9360134 
C    -2.5792328    6.2981453   -2.5538690 
C    -0.4083969    5.2787870   -1.7215099 
C     0.3394866    4.2286341   -1.1753237 
C     0.2029333    1.7731987    1.7558005 
C    -0.6554430    2.8316025    2.1371089 
C    -1.0941177    2.9900540    3.4572668 
C    -0.7023053    2.0714083    4.4360510 
C     0.1615966    1.0284453    4.0828955 
C     0.7314721   -0.0085745    5.0237883 
C     1.4014691   -1.0173508    4.0765038 
C     0.6409067    0.8670401    2.7615629 
C     1.7411949   -0.2067952    2.7814237 
C     2.0413790   -1.1891127    1.6447382 
C     3.4430251   -1.3871192    1.5668906 
C     4.1823880   -0.5194493    2.5582290 
C     3.1224044    0.5154599    2.9685078 
C     4.0163071   -2.2940387    0.6711899 
C     3.1802553   -3.0294722   -0.1806598 
C     1.7943691   -2.8613515   -0.1073675 
C     1.1933833   -1.9675117    0.8204321 
C    -1.3750385   -3.3514396    0.2493860 
C    -0.8061090   -4.5829992    0.6210775 
C    -1.5486505   -5.7666769    0.4927949 
C    -2.8703465   -5.7546635    0.0117366 
C    -3.6615713   -7.0297992   -0.1591446 
C    -3.4377628   -4.5094323   -0.3333577 
C    -2.7041396   -3.3280373   -0.2260175 
C    -1.5850356   -1.1656902    1.9540849 
C    -2.3817250   -0.0106561    1.8632780 
C    -3.2141695    0.3586848    2.9241550 
C    -3.2767059   -0.4117527    4.1020087 
C    -4.1225415    0.0333017    5.2711877 
C    -2.5102566   -1.5940535    4.1636675 
C    -1.6878878   -1.9792986    3.1002317 
H     2.3588479    3.7328591    0.9306516 
H     4.8055863    4.0703269    0.7738370 
H     6.9218313    3.1912819   -1.1508755 
H     7.2083739    1.5039317   -0.6503589 
H     7.0845797    2.8027875    0.5755158 
H     5.2013187    0.2918746   -1.2929101 
H     2.7460431   -0.0341219   -1.1684708 
H    -2.1723300    1.9332585   -0.8411369 
H    -3.4875778    3.8139434   -1.7748358 
H    -3.6620709    6.1880340   -2.3797154 
H    -2.2579335    7.2745397   -2.1528443 
H    -2.4171887    6.3270526   -3.6484155 
H     0.1045109    6.2072250   -1.9960324 
H     1.4168120    4.3546697   -1.0452658 
H    -0.9984172    3.5440963    1.3832861 
H    -1.7552948    3.8254516    3.7095854 
H    -1.0552752    2.1678504    5.4685238 
H    -0.0498977   -0.4703538    5.6528483 
H     1.4621806    0.4594948    5.7109966 
H     2.3011754   -1.4940290    4.4991095 
H     0.6947383   -1.8198155    3.8172015 
H     4.5156920   -1.1319899    3.4184299 
H     5.0845787   -0.0572341    2.1222773 
H     3.2405320    0.8909004    3.9981918 
H     3.1700855    1.3817101    2.2925397 
H     5.1038181   -2.4167020    0.6300645 
H     3.6028015   -3.7343602   -0.9041749 
H     1.1556416   -3.4283703   -0.7920577 
H     0.2105942   -4.6287029    1.0237593 
H    -1.0888809   -6.7182513    0.7829498 
H    -3.1428452   -7.8954213    0.2835542 
H    -3.8227296   -7.2418810   -1.2330130 
H    -4.6592020   -6.9464715    0.3069374 
H    -4.4659399   -4.4690937   -0.7081571 
H    -3.1664945   -2.3743640   -0.5043379 
H    -2.3373520    0.6061753    0.9607115 
H    -3.8168057    1.2694414    2.8408022 
H    -3.5781378    0.7903139    5.8682869 
H    -4.3671295   -0.8065175    5.9420494 
H    -5.0641343    0.4997287    4.9352160 
H    -2.5697720   -2.2300643    5.0541043 
H    -1.1392891   -2.9258516    3.1537874 
