118
Energy =
C     2.6007780   -2.2475663    0.8999896 
C     2.7551281   -2.1427064   -0.4979409 
C     3.2613666   -0.9556874   -1.1066548 
H     2.3736420   -2.9529878   -1.1320044 
Pd    1.3631573   -0.5087251    0.0063333 
P    -0.5520723   -0.7447417    1.3984246 
P     0.6195907    1.3809918   -1.1311103 
H     3.1925575   -1.5612329    1.5248083 
H     3.9351588   -0.3293547   -0.5037336 
C     1.2476878   -5.7566973    2.9831129 
C     0.7301137   -5.4647740    1.7099851 
C     1.1559594   -4.3254325    1.0213852 
C     2.0983089   -3.4433390    1.5974878 
C     2.6016574   -3.7429472    2.8825898 
C     2.1887933   -4.8940620    3.5634152 
H     0.9161821   -6.6516134    3.5198878 
H    -0.0112920   -6.1278115    1.2520318 
H     0.7357572   -4.1077176    0.0358847 
H     3.3268790   -3.0662215    3.3462335 
H     2.5975624   -5.1137632    4.5551730 
C     3.7136306   -0.4525028   -5.3617892 
C     2.8140184   -1.4104032   -4.8653718 
C     2.6562361   -1.5826145   -3.4862289 
C     3.3993453   -0.8033262   -2.5671894 
C     4.3136969    0.1409009   -3.0846409 
C     4.4653714    0.3193093   -4.4642997 
H     3.8309376   -0.3150640   -6.4415402 
H     2.2284136   -2.0237793   -5.5585731 
H     1.9316187   -2.3180446   -3.1210719 
H     4.9136023    0.7385195   -2.3920294 
H     5.1759204    1.0630072   -4.8388872 
C     1.3573335    2.4756358   -3.7087223 
C     2.2206283    3.2240460   -4.5206393 
C     3.4323242    3.7427945   -4.0261702 
C     4.3723750    4.5176892   -4.9197016 
C     3.7532370    3.4916167   -2.6763004 
C     2.9089667    2.7304276   -1.8638880 
C     1.7007689    2.2075658   -2.3711431 
C     0.1868326    2.8555939   -0.1320060 
C     0.5127595    2.8949555    1.2357117 
C     0.2711346    4.0481454    1.9881131 
C    -0.2986085    5.1945349    1.3991858 
C    -0.6206064    6.4105763    2.2346023 
C    -0.5756801    5.1624417    0.0169203 
C    -0.3225074    4.0174528   -0.7456149 
C    -0.7889433    0.6131453   -2.0362382 
C    -0.3645379   -0.1400254   -3.1618627 
C    -1.2410916   -0.9668856   -3.8701444 
C    -2.5772988   -1.0768389   -3.4618105 
C    -3.0006944   -0.3695705   -2.3330242 
C    -4.3943760   -0.3679631   -1.7494174 
C    -4.1877286    0.2522648   -0.3581319 
C    -2.1245622    0.4636488   -1.5933880 
C    -2.9192810    1.1670342   -0.4917974 
C    -2.4028409    1.4638290    0.9251214 
C    -3.0104163    2.6639137    1.3654403 
C    -3.7819623    3.3497563    0.2607422 
C    -3.3575698    2.5800629   -1.0005147 
C    -2.9197016    3.0992783    2.6922119 
C    -2.2227967    2.3147549    3.6158409 
C    -1.5877621    1.1404683    3.1940956 
C    -1.6427922    0.6945246    1.8515966 
C     0.0532100   -1.3523921    3.0289372 
C     1.1339873   -0.6552612    3.6123467 
C     1.6259836   -1.0199326    4.8694809 
C     1.0749427   -2.1078345    5.5774098 
C     1.6384167   -2.5402216    6.9105558 
C     0.0196263   -2.8165807    4.9732441 
C    -0.4877860   -2.4508149    3.7196344 
C    -1.6797531   -2.0283832    0.7393888 
C    -1.4050785   -2.6324458   -0.4996133 
C    -2.2603887   -3.6129221   -1.0177676 
C    -3.4126967   -4.0176563   -0.3177600 
C    -4.3284250   -5.0886674   -0.8631429 
C    -3.6929312   -3.3914554    0.9168024 
C    -2.8483428   -2.4059669    1.4369988 
H     0.4119081    2.1154415   -4.1245971 
H     1.9370396    3.4162233   -5.5616179 
H     4.9649524    5.2499060   -4.3462913 
H     3.8266138    5.0534366   -5.7141002 
H     5.0858877    3.8320609   -5.4160811 
H     4.6834495    3.8926869   -2.2580577 
H     3.1823686    2.5497048   -0.8169840 
H     0.9469174    2.0101985    1.7126246 
H     0.5174719    4.0537397    3.0552848 
H     0.1673338    6.6078794    2.9813920 
H    -0.7475372    7.3118537    1.6129598 
H    -1.5641796    6.2509434    2.7912096 
H    -0.9847565    6.0535228   -0.4723608 
H    -0.5038680    4.0340163   -1.8257847 
H     0.6809296   -0.0905275   -3.4774298 
H    -0.8720240   -1.5250657   -4.7371410 
H    -3.2787989   -1.7181284   -4.0059738 
H    -5.0672597    0.2460343   -2.3788592 
H    -4.8309514   -1.3808620   -1.7040813 
H    -5.0560135    0.8234269    0.0093265 
H    -3.9797524   -0.5419142    0.3735312 
H    -3.5470092    4.4271089    0.2008038 
H    -4.8700172    3.2684663    0.4469934 
H    -4.1506179    2.5028120   -1.7624055 
H    -2.4941882    3.0718292   -1.4727875 
H    -3.4015041    4.0337929    2.9996032 
H    -2.1548740    2.6166265    4.6660431 
H    -1.0280511    0.5615219    3.9315834 
H     1.5889254    0.1884815    3.0784220 
H     2.4572280   -0.4550073    5.3065567 
H     2.1447204   -1.7088191    7.4281480 
H     2.3840302   -3.3464232    6.7691996 
H     0.8503843   -2.9372239    7.5723068 
H    -0.4101565   -3.6840607    5.4861913 
H    -1.2910277   -3.0450529    3.2773950 
H    -0.5317595   -2.3056872   -1.0777513 
H    -2.0359625   -4.0579442   -1.9932672 
H    -4.1266187   -5.2926608   -1.9273119 
H    -5.3889006   -4.8010243   -0.7572800 
H    -4.1925543   -6.0351799   -0.3071249 
H    -4.5963100   -3.6708915    1.4707061 
H    -3.1105419   -1.9091934    2.3777483 
