118
Energy =
C    -2.1134990    1.3704303   -2.4236366 
C    -2.4121671   -0.0105459   -2.5726397 
C    -2.9385547   -0.7490287   -1.4820576 
H    -2.1364543   -0.5278698   -3.4992015 
Pd   -0.8816497    0.1204957   -0.9943577 
P    -0.3475132   -1.5247286    0.6115567 
P     0.7277339    1.6868311   -0.3865113 
H    -2.6406719    1.8944525   -1.6121805 
H    -3.4461882   -0.1678884   -0.6994927 
C    -0.8180962    4.0278529   -5.5441633 
C    -0.6049453    2.6455554   -5.6811019 
C    -0.9918533    1.7675322   -4.6642175 
C    -1.6144401    2.2523098   -3.4900008 
C    -1.8026426    3.6474953   -3.3592073 
C    -1.4110682    4.5261293   -4.3749522 
H    -0.5153263    4.7123588   -6.3433520 
H    -0.1325076    2.2518031   -6.5871155 
H    -0.8062718    0.6945207   -4.7823399 
H    -2.2751508    4.0424372   -2.4530189 
H    -1.5688074    5.6024858   -4.2530675 
C    -4.1737138   -4.8662361   -1.5487987 
C    -3.3699416   -4.3663612   -2.5871254 
C    -2.9324692   -3.0395050   -2.5670394 
C    -3.3037850   -2.1735481   -1.5121835 
C    -4.0987649   -2.6955039   -0.4650276 
C    -4.5293435   -4.0271451   -0.4829202 
H    -4.5158928   -5.9060881   -1.5705662 
H    -3.0800717   -5.0181291   -3.4175681 
H    -2.2971553   -2.6758358   -3.3802055 
H    -4.3859666   -2.0428499    0.3659631 
H    -5.1512346   -4.4077844    0.3339586 
C    -1.4979107   -2.6689559    2.9334915 
C    -2.4313757   -2.7312125    3.9722621 
C    -3.4652851   -1.7752337    4.0856865 
C    -4.4745801   -1.8616975    5.2065056 
C    -3.5202844   -0.7456094    3.1272365 
C    -2.5958229   -0.6830593    2.0762886 
C    -1.5870727   -1.6544039    1.9542203 
C    -0.3587918   -3.1090114   -0.3240185 
C    -0.9946905   -4.2890881    0.1024984 
C    -0.9100290   -5.4544405   -0.6686093 
C    -0.1935605   -5.4877451   -1.8807273 
C    -0.1366000   -6.7491882   -2.7097737 
C     0.4210833   -4.2961500   -2.3131123 
C     0.3298840   -3.1227561   -1.5568720 
C     1.2828154   -1.5468492    1.4990485 
C     2.1546638   -2.6274547    1.2256965 
C     3.4562664   -2.6770453    1.7392864 
C     3.9339636   -1.6253953    2.5275234 
C     3.0809448   -0.5563746    2.8248846 
C     3.4129279    0.6235277    3.7097744 
C     2.2263155    1.5764100    3.4909626 
C     1.7525356   -0.5003258    2.3410494 
C     1.0358573    0.6609520    3.0495822 
C    -0.0600794    1.5351955    2.4317399 
C    -1.0167681    1.8462841    3.4306992 
C    -0.6976812    1.1601460    4.7382492 
C     0.3223005    0.0869958    4.3244909 
C    -2.0980644    2.6969471    3.1842388 
C    -2.2449705    3.2580581    1.9078480 
C    -1.3028632    2.9770912    0.9139718 
C    -0.1794192    2.1406354    1.1575144 
C     0.9681157    3.2228085   -1.3610580 
C     1.4351246    3.0324858   -2.6795291 
C     1.7804311    4.1269491   -3.4723717 
C     1.6572978    5.4467235   -2.9879717 
C     1.9852593    6.6223773   -3.8776858 
C     1.1997611    5.6257467   -1.6698565 
C     0.8652247    4.5320743   -0.8569606 
C     2.4848753    1.2300357   -0.1523361 
C     2.9570982    0.0069538   -0.6603532 
C     4.3156352   -0.3140060   -0.5805244 
C     5.2396147    0.5735130    0.0054812 
C     6.6920926    0.1879952    0.1542110 
C     4.7634749    1.8178504    0.4681441 
C     3.4089084    2.1534088    0.3767370 
H    -0.6764413   -3.3928101    2.9014489 
H    -2.3474955   -3.5260287    4.7220882 
H    -5.0430204   -0.9237546    5.3149779 
H    -3.9851689   -2.0881735    6.1695976 
H    -5.1999261   -2.6739923    5.0124025 
H    -4.2875951    0.0319780    3.2112695 
H    -2.6351920    0.1499297    1.3658799 
H    -1.5783013   -4.3038068    1.0258428 
H    -1.4239427   -6.3576035   -0.3213236 
H    -1.1022366   -6.9174992   -3.2235705 
H     0.6487182   -6.6953482   -3.4811789 
H     0.0530841   -7.6351331   -2.0796484 
H     0.9717054   -4.2839614   -3.2605224 
H     0.8007153   -2.2033294   -1.9265576 
H     1.8130974   -3.4459056    0.5876737 
H     4.0964998   -3.5337995    1.5053872 
H     4.9573898   -1.6377252    2.9178138 
H     4.3809930    1.0822103    3.4418157 
H     3.4919641    0.2991130    4.7651076 
H     1.9652585    2.1728616    4.3806343 
H     2.4522554    2.2814779    2.6769091 
H    -0.2635612    1.8894902    5.4493585 
H    -1.5944221    0.7340966    5.2198661 
H     1.0518258   -0.1627478    5.1122270 
H    -0.2047656   -0.8400526    4.0552417 
H    -2.8246424    2.9099204    3.9755873 
H    -3.0918682    3.9141416    1.6815758 
H    -1.4413070    3.4068328   -0.0831781 
H     1.5352044    2.0177317   -3.0806311 
H     2.1364705    3.9570223   -4.4938985 
H     1.2396852    6.7095094   -4.6905685 
H     2.9723453    6.4980198   -4.3567101 
H     1.9881868    7.5712251   -3.3172372 
H     1.1098426    6.6394708   -1.2631923 
H     0.5369869    4.7091752    0.1720913 
H     2.2521607   -0.6997928   -1.1081313 
H     4.6624952   -1.2776387   -0.9686359 
H     7.0462332   -0.3972221   -0.7113088 
H     6.8277507   -0.4440582    1.0531849 
H     7.3402254    1.0722921    0.2685966 
H     5.4681393    2.5407570    0.8945015 
H     3.0724434    3.1443233    0.7002217 
