118
Energy =
C    -2.0914997    1.3835966   -2.4310736 
C    -2.3977596    0.0044893   -2.5829233 
C    -2.9379945   -0.7305604   -1.4970180 
H    -2.1186424   -0.5143332   -3.5076272 
Pd   -0.8775332    0.1252496   -0.9953988 
P    -0.3590696   -1.5278147    0.6093514 
P     0.7344186    1.6825498   -0.3733059 
H    -2.6225620    1.9107907   -1.6242372 
H    -3.4459970   -0.1459054   -0.7172771 
C    -0.7578964    4.0338901   -5.5414405 
C    -0.5500070    2.6505950   -5.6762609 
C    -0.9492963    1.7746996   -4.6622660 
C    -1.5789908    2.2628131   -3.4932544 
C    -1.7611835    3.6589820   -3.3641103 
C    -1.3570553    4.5354781   -4.3767910 
H    -0.4468918    4.7166289   -6.3389962 
H    -0.0723674    2.2543062   -6.5784428 
H    -0.7675221    0.7008001   -4.7783599 
H    -2.2381823    4.0564599   -2.4613874 
H    -1.5091268    5.6126980   -4.2560269 
C    -4.2084378   -4.8364385   -1.5757606 
C    -3.3925457   -4.3434024   -2.6078967 
C    -2.9444001   -3.0201899   -2.5840983 
C    -3.3148439   -2.1518533   -1.5307683 
C    -4.1213147   -2.6674991   -0.4893253 
C    -4.5641218   -3.9950800   -0.5117102 
H    -4.5594343   -5.8732721   -1.6005923 
H    -3.0993723   -4.9987603   -3.4343485 
H    -2.3005464   -2.6613469   -3.3927111 
H    -4.4074915   -2.0132427    0.3407592 
H    -5.1953692   -4.3707247    0.3003101 
C    -1.5252209   -2.6727183    2.9223207 
C    -2.4640904   -2.7337315    3.9569134 
C    -3.4940270   -1.7739224    4.0681084 
C    -4.5156091   -1.8601375    5.1777283 
C    -3.5396780   -0.7406644    3.1123037 
C    -2.6104488   -0.6794067    2.0661039 
C    -1.6052966   -1.6552317    1.9459379 
C    -0.3758101   -3.1097877   -0.3299541 
C     0.3172363   -3.1250233   -1.5621070 
C     0.3936436   -4.2927923   -2.3256221 
C    -0.2381100   -5.4806485   -1.9017192 
C    -0.1546983   -6.7412304   -2.7301280 
C    -0.9563841   -5.4455063   -0.6928069 
C    -1.0274288   -4.2830041    0.0868630 
C     1.2678898   -1.5610544    1.5021876 
C     2.1355074   -2.6448089    1.2275827 
C     3.4359559   -2.7014415    1.7433175 
C     3.9175598   -1.6534527    2.5339959 
C     3.0680662   -0.5823347    2.8339833 
C     3.4031688    0.5931335    3.7235428 
C     2.2204415    1.5513300    3.5068121 
C     1.7406921   -0.5192100    2.3481949 
C     1.0273307    0.6422337    3.0595798 
C    -0.0637403    1.5224573    2.4419766 
C    -1.0227045    1.8327733    3.4390131 
C    -0.7092299    1.1414716    4.7452053 
C     0.3082939    0.0663258    4.3305161 
C    -2.1012386    2.6866712    3.1918124 
C    -2.2437582    3.2507323    1.9162053 
C    -1.2994101    2.9703702    0.9242940 
C    -0.1777968    2.1317398    1.1691756 
C     0.9858616    3.2232015   -1.3381259 
C     1.4654189    3.0374798   -2.6529587 
C     1.8162335    4.1345918   -3.4393811 
C     1.6884236    5.4528463   -2.9517148 
C     2.0508913    6.6303849   -3.8257282 
C     1.2169554    5.6273794   -1.6380968 
C     0.8756968    4.5307910   -0.8316652 
C     2.4901401    1.2204060   -0.1373475 
C     2.9601060   -0.0032981   -0.6441743 
C     4.3180427   -0.3286462   -0.5590062 
C     5.2428167    0.5564508    0.0276301 
C     6.7071989    0.1987094    0.1267655 
C     4.7677379    1.8007774    0.4936333 
C     3.4151927    2.1402196    0.3977306 
H    -0.7068640   -3.4001806    2.8921140 
H    -2.3870794   -3.5307781    4.7050383 
H    -4.9803842   -0.8807637    5.3783109 
H    -4.0650144   -2.2335900    6.1128377 
H    -5.3254354   -2.5619880    4.9021291 
H    -4.3032189    0.0407675    3.1955026 
H    -2.6422118    0.1558953    1.3579883 
H     0.7969836   -2.2080084   -1.9263507 
H     0.9401981   -4.2790452   -3.2755385 
H    -0.2794922   -6.5230679   -3.8051172 
H     0.8332214   -7.2238694   -2.6090441 
H    -0.9230595   -7.4730451   -2.4317829 
H    -1.4889708   -6.3417131   -0.3564506 
H    -1.6179108   -4.2954148    1.0058667 
H     1.7915084   -3.4595424    0.5860836 
H     4.0726854   -3.5606200    1.5086407 
H     4.9412998   -1.6696498    2.9230262 
H     4.3733415    1.0490576    3.4586338 
H     3.4794842    0.2644541    4.7777581 
H     1.9601038    2.1450428    4.3985305 
H     2.4503720    2.2589426    2.6960890 
H    -0.2745109    1.8670838    5.4597647 
H    -1.6085664    0.7167845    5.2231696 
H     1.0347396   -0.1887656    5.1193690 
H    -0.2212698   -0.8579041    4.0563865 
H    -2.8291672    2.8998824    3.9818533 
H    -3.0888303    3.9088901    1.6891388 
H    -1.4344523    3.4026306   -0.0722392 
H     1.5674960    2.0242357   -3.0573558 
H     2.1779181    3.9681663   -4.4595070 
H     3.1374734    6.6502346   -4.0290681 
H     1.7759558    7.5880623   -3.3548584 
H     1.5396707    6.5648516   -4.8031464 
H     1.1188447    6.6399060   -1.2303582 
H     0.5340560    4.7048935    0.1934756 
H     2.2542166   -0.7099905   -1.0904380 
H     4.6618273   -1.2965917   -0.9388711 
H     7.1673353    0.6323549    1.0307850 
H     7.2643313    0.5909641   -0.7450825 
H     6.8538946   -0.8940604    0.1488960 
H     5.4716300    2.5181705    0.9307058 
H     3.0790658    3.1292900    0.7272051 
