118
Energy =
C    -0.5087658    1.1583562   -3.2447598 
C    -0.8097002   -0.2136263   -3.4337194 
C    -2.0018686   -0.7772030   -2.9069679 
H    -0.0696566   -0.8771106   -3.8984215 
Pd   -0.6867350    0.0458091   -1.2517880 
P    -0.8570810   -1.5374307    0.4479973 
P     0.4825662    1.6777233    0.0531980 
H    -1.3527504    1.8325391   -3.0417961 
H    -2.8317974   -0.0807220   -2.7117874 
C     3.0055583    3.2053129   -4.6466187 
C     1.8819294    3.9204520   -4.2079027 
C     0.7447046    3.2375897   -3.7616865 
C     0.7097211    1.8250352   -3.7315263 
C     1.8465580    1.1179328   -4.1896445 
C     2.9781958    1.8004427   -4.6432089 
H     3.8960699    3.7370698   -4.9973285 
H     1.8875066    5.0154588   -4.2155265 
H    -0.1346690    3.7999085   -3.4313201 
H     1.8538208    0.0228173   -4.1809306 
H     3.8487148    1.2350817   -4.9920133 
C    -3.2668488   -4.8235396   -3.6188485 
C    -4.2041878   -3.7833951   -3.5389103 
C    -3.7802370   -2.4756489   -3.2750116 
C    -2.4083566   -2.1776004   -3.1132631 
C    -1.4765434   -3.2373594   -3.1968675 
C    -1.9011350   -4.5461374   -3.4400235 
H    -3.5972610   -5.8487070   -3.8153237 
H    -5.2701978   -3.9922463   -3.6762880 
H    -4.5168366   -1.6667815   -3.2088640 
H    -0.4103114   -3.0319877   -3.0535708 
H    -1.1667148   -5.3565420   -3.4845540 
C    -1.8399022   -1.9861112    3.0685389 
C    -2.5921112   -1.6480467    4.1979110 
C    -3.2863478   -0.4226142    4.2728193 
C    -4.0557480   -0.0344685    5.5129170 
C    -3.2253023    0.4428271    3.1627553 
C    -2.4625146    0.1196350    2.0365205 
C    -1.7342222   -1.0833933    1.9908927 
C    -1.5895663   -3.2006723    0.1765301 
C    -0.9181088   -4.4183733    0.3955644 
C    -1.6026275   -5.6345325    0.2590497 
C    -2.9661871   -5.6739283   -0.0847966 
C    -3.6972626   -6.9825796   -0.2689272 
C    -3.6354918   -4.4460803   -0.2728531 
C    -2.9620499   -3.2303473   -0.1499418 
C     0.9664908   -1.8201201    0.5775421 
C     1.4678038   -2.5810753   -0.5141828 
C     2.8365846   -2.7947717   -0.6994487 
C     3.7574284   -2.2350304    0.1978211 
C     3.2834771   -1.4450694    1.2478306 
C     4.1165495   -0.7509306    2.2998294 
C     3.1308413    0.2559167    2.9162960 
C     1.9000409   -1.2072391    1.4429711 
C     1.7046267   -0.3649829    2.7007945 
C     0.6679665    0.7595265    2.8137879 
C     0.2416870    0.8289024    4.1608133 
C     0.7768275   -0.3243767    4.9804824 
C     1.3524207   -1.2789494    3.9187331 
C    -0.5499653    1.8823816    4.6307844 
C    -0.9223337    2.8978276    3.7433225 
C    -0.5425887    2.8253426    2.3975539 
C     0.2444647    1.7603840    1.8963010 
C    -0.1810451    3.2982323   -0.5304704 
C     0.6116909    4.4354463   -0.7626848 
C     0.0284657    5.6276402   -1.2178318 
C    -1.3532330    5.7244469   -1.4635373 
C    -1.9803472    7.0028329   -1.9686604 
C    -2.1435913    4.5758412   -1.2345002 
C    -1.5698019    3.3859551   -0.7787456 
C     2.2876741    1.7425379   -0.2223979 
C     2.8788737    0.8473105   -1.1279657 
C     4.2572692    0.8879339   -1.3659444 
C     5.0829236    1.8201205   -0.7101378 
C     6.5648255    1.8874362   -0.9968445 
C     4.4833518    2.7052526    0.2126209 
C     3.1075876    2.6681160    0.4605726 
H    -1.3501467   -2.9643328    3.0159777 
H    -2.6545165   -2.3554992    5.0324788 
H    -3.4412974    0.6315838    6.1491339 
H    -4.3268523   -0.9149884    6.1181496 
H    -4.9780823    0.5160053    5.2613583 
H    -3.7749127    1.3899473    3.1843220 
H    -2.4210647    0.8079139    1.1858769 
H     0.1373206   -4.4282726    0.6835860 
H    -1.0624660   -6.5722903    0.4321545 
H    -3.9208077   -7.1507347   -1.3393230 
H    -3.1016472   -7.8373544    0.0903515 
H    -4.6626693   -6.9806335    0.2667957 
H    -4.6994141   -4.4450499   -0.5324732 
H    -3.5058818   -2.2914121   -0.3009719 
H     0.7620360   -3.0167201   -1.2282955 
H     3.1800898   -3.3979079   -1.5463211 
H     4.8328842   -2.3953588    0.0682944 
H     5.0103651   -0.2641032    1.8727689 
H     4.4733268   -1.4877326    3.0454355 
H     3.3186884    0.4676235    3.9816857 
H     3.1919069    1.2097541    2.3731344 
H     1.5575469    0.0316699    5.6795000 
H    -0.0116633   -0.7956683    5.5932964 
H     2.2325685   -1.8473314    4.2622934 
H     0.5883067   -2.0079264    3.6098196 
H    -0.8646318    1.9115331    5.6795956 
H    -1.5267021    3.7434297    4.0873938 
H    -0.8748524    3.6149477    1.7197156 
H     1.6941271    4.3959655   -0.6185667 
H     0.6696039    6.4978184   -1.3980281 
H    -1.2440452    7.8202943   -2.0279199 
H    -2.8039107    7.3268190   -1.3075397 
H    -2.4119541    6.8572016   -2.9758385 
H    -3.2232384    4.6166870   -1.4186112 
H    -2.2063113    2.5064930   -0.6148737 
H     2.2567089    0.0962091   -1.6251986 
H     4.6990449    0.1749531   -2.0704917 
H     6.9528787    0.9193322   -1.3548005 
H     7.1378380    2.1866450   -0.1030461 
H     6.7694281    2.6378132   -1.7841023 
H     5.1075595    3.4255864    0.7533417 
H     2.6716240    3.3434464    1.2055336 
