118
Energy =
C    -0.7289100   -1.3280302   -3.3645845 
C    -1.6563617   -0.2788490   -3.2406131 
C    -1.2146294    1.0837715   -3.0925480 
H    -2.7161766   -0.5262424   -3.0970116 
Pd   -0.3835764   -0.0865526   -1.4285423 
P     0.8436290    1.6236768   -0.3884324 
P    -0.2811256   -1.5573785    0.4261292 
H     0.3179347   -1.0547777   -3.5759039 
H    -0.3491505    1.4105204   -3.6822336 
C    -1.5346485   -5.5193583   -3.7879598 
C    -0.2805718   -5.0747114   -3.3399380 
C    -0.0307247   -3.7057589   -3.2137903 
C    -1.0358208   -2.7550289   -3.5115784 
C    -2.2950239   -3.2168794   -3.9596000 
C    -2.5368111   -4.5872792   -4.1028404 
H    -1.7286489   -6.5911319   -3.8996329 
H     0.5015379   -5.7982919   -3.0898483 
H     0.9465085   -3.3563049   -2.8616044 
H    -3.0768279   -2.4986895   -4.2273867 
H    -3.5099103   -4.9315996   -4.4679444 
C    -3.7372779    4.2342599   -1.5712571 
C    -4.0780942    2.8902342   -1.3433208 
C    -3.2801803    1.8639914   -1.8585177 
C    -2.1169005    2.1528791   -2.6169960 
C    -1.8020767    3.5110566   -2.8564276 
C    -2.5997839    4.5371953   -2.3352759 
H    -4.3596474    5.0378085   -1.1641705 
H    -4.9695621    2.6405748   -0.7580042 
H    -3.5577543    0.8242796   -1.6556184 
H    -0.9166533    3.7618058   -3.4476138 
H    -2.3279567    5.5800754   -2.5279519 
C     3.5400144    2.1373706    0.3005605 
C     4.9137041    1.8846850    0.2586467 
C     5.4256338    0.7337394   -0.3786424 
C     6.9073433    0.4404537   -0.3805640 
C     4.5122687   -0.1431244   -0.9929241 
C     3.1330629    0.0905213   -0.9361695 
C     2.6312033    1.2172861   -0.2620781 
C     1.0500889    3.2075074   -1.3161626 
C     1.5841149    3.0762832   -2.6176788 
C     1.8591455    4.2023405   -3.3957207 
C     1.6150424    5.5044585   -2.9046330 
C     1.9024449    6.7165922   -3.7596282 
C     1.1136777    5.6260944   -1.5963289 
C     0.8411718    4.4994911   -0.8046733 
C     0.0261856    2.0187453    1.2075320 
C    -1.1032702    2.8662816    1.0540524 
C    -1.9516396    3.1581962    2.1255535 
C    -1.7256194    2.5685008    3.3767970 
C    -0.6642709    1.6708166    3.5229328 
C    -0.2986536    0.9060840    4.7748555 
C     0.6725763   -0.1697211    4.2586791 
C     0.2186267    1.3748956    2.4552685 
C     1.3195460    0.4401943    2.9689213 
C     1.9407642   -0.6811606    2.1234182 
C     3.3157724   -0.7837181    2.4534008 
C     3.7387414    0.2885929    3.4310592 
C     2.5698900    1.2863700    3.3853063 
C     4.1357190   -1.7801912    1.9172763 
C     3.5921312   -2.6846261    0.9963330 
C     2.2445637   -2.5852284    0.6395457 
C     1.3792364   -1.6219145    1.2209218 
C    -0.8334271   -3.3015243    0.1813552 
C    -2.0204491   -3.4442220   -0.5680015 
C    -2.6365046   -4.6891967   -0.6996654 
C    -2.0823200   -5.8423217   -0.1057993 
C    -2.7282383   -7.1937766   -0.3006310 
C    -0.9080079   -5.6899795    0.6539821 
C    -0.2935041   -4.4387124    0.8106904 
C    -1.6095922   -1.0685166    1.6039976 
C    -2.5313237   -0.0740712    1.2351415 
C    -3.6342479    0.2092777    2.0483185 
C    -3.8464338   -0.4847900    3.2541651 
C    -4.9988809   -0.1289118    4.1638599 
C    -2.9348227   -1.5061656    3.5989503 
C    -1.8427431   -1.8101626    2.7804588 
H     3.1727219    3.0663684    0.7496678 
H     5.6056908    2.6033044    0.7122733 
H     7.2041574   -0.1451901   -1.2665372 
H     7.1807841   -0.1526178    0.5135836 
H     7.5055622    1.3665531   -0.3556784 
H     4.8840229   -1.0321781   -1.5139091 
H     2.4358257   -0.6088882   -1.4119141 
H     1.8031774    2.0782465   -3.0160430 
H     2.2723719    4.0723313   -4.4024199 
H     1.3118450    6.6900582   -4.6933685 
H     1.6647521    7.6530552   -3.2299297 
H     2.9676990    6.7479834   -4.0519828 
H     0.9348908    6.6234374   -1.1789494 
H     0.4687993    4.6429260    0.2132980 
H    -1.3413389    3.2817845    0.0692119 
H    -2.8050538    3.8252130    1.9672565 
H    -2.3911447    2.7777129    4.2211104 
H    -1.1850005    0.4744468    5.2715326 
H     0.1864056    1.5802103    5.5070876 
H     1.4419421   -0.4621856    4.9920131 
H     0.1144190   -1.0767537    3.9857814 
H     3.8685963   -0.1454481    4.4411993 
H     4.7029655    0.7479186    3.1514444 
H     2.3967224    1.8126439    4.3382764 
H     2.7578813    2.0505510    2.6173824 
H     5.1936580   -1.8331495    2.1953006 
H     4.2200566   -3.4529082    0.5336331 
H     1.8537966   -3.2636018   -0.1258272 
H    -2.4738674   -2.5617491   -1.0345535 
H    -3.5594251   -4.7712744   -1.2830025 
H    -2.3254362   -7.9438468    0.3991842 
H    -2.5498443   -7.5612334   -1.3290512 
H    -3.8220141   -7.1387520   -0.1617147 
H    -0.4682025   -6.5639021    1.1479757 
H     0.5979188   -4.3588477    1.4399305 
H    -2.3735491    0.4935856    0.3119073 
H    -4.3317052    0.9978153    1.7445140 
H    -5.3107918   -0.9873688    4.7815754 
H    -5.8720406    0.2263939    3.5912219 
H    -4.7050369    0.6855102    4.8540982 
H    -3.0941508   -2.0839374    4.5165027 
H    -1.1815853   -2.6422253    3.0462573 
