118
Energy =
C    -2.1182055    1.3813339   -2.4138980 
C    -2.4161655    0.0008708   -2.5693442 
C    -2.9408168   -0.7433309   -1.4818428 
H    -2.1409961   -0.5117151   -3.4986966 
Pd   -0.8839995    0.1256094   -0.9923013 
P    -0.3455880   -1.5279765    0.6035848 
P     0.7249291    1.6901323   -0.3784066 
H    -2.6452123    1.9011943   -1.5996640 
H    -3.4478922   -0.1664328   -0.6957714 
C    -0.8272906    4.0537733   -5.5234545 
C    -1.4206385    4.5462753   -4.3519927 
C    -1.8106669    3.6628213   -3.3398288 
C    -1.6205951    2.2684736   -3.4765964 
C    -0.9975829    1.7895290   -4.6529756 
C    -0.6121730    2.6723721   -5.6662476 
H    -0.5256713    4.7420634   -6.3198216 
H    -1.5798654    5.6218842   -4.2255244 
H    -2.2834052    4.0532668   -2.4318110 
H    -0.8104313    0.7172920   -4.7755850 
H    -0.1393234    2.2831265   -6.5739942 
C    -4.1709498   -4.8617749   -1.5661016 
C    -4.5253812   -4.0283495   -0.4953866 
C    -4.0966535   -2.6961988   -0.4720211 
C    -3.3046537   -2.1680677   -1.5183453 
C    -2.9346407   -3.0283487   -2.5782945 
C    -3.3703028   -4.3557102   -2.6038427 
H    -4.5117082   -5.9019964   -1.5921259 
H    -5.1449236   -4.4137897    0.3210245 
H    -4.3829518   -2.0480132    0.3627626 
H    -2.3017282   -2.6598652   -3.3911616 
H    -3.0813911   -5.0030087   -3.4381072 
C    -1.4908259   -2.6871263    2.9207487 
C    -2.4224075   -2.7564772    3.9606724 
C    -3.4571221   -1.8022115    4.0815066 
C    -4.4634052   -1.8959846    5.2044481 
C    -3.5148807   -0.7671187    3.1292257 
C    -2.5922635   -0.6974016    2.0770442 
C    -1.5827417   -1.6669358    1.9475487 
C    -0.3562151   -3.1067334   -0.3413386 
C     0.3293210   -3.1117082   -1.5759508 
C     0.4208753   -4.2803737   -2.3395323 
C    -0.1901945   -5.4757437   -1.9127346 
C    -0.1322722   -6.7325571   -2.7487292 
C    -0.9035810   -5.4511786   -0.6985257 
C    -0.9886050   -4.2906968    0.0797524 
C     1.2860727   -1.5533594    1.4885122 
C     2.1585853   -2.6315714    1.2079134 
C     3.4608938   -2.6828234    1.7195504 
C     3.9386085   -1.6351732    2.5130899 
C     3.0850033   -0.5685977    2.8174960 
C     3.4170323    0.6066668    3.7085165 
C     2.2292517    1.5596514    3.4965345 
C     1.7559105   -0.5111007    2.3357127 
C     1.0390636    0.6455525    3.0516235 
C    -0.0585974    1.5221295    2.4401405 
C    -1.0141629    1.8267513    3.4421760 
C    -0.6925226    1.1337506    4.7454705 
C     0.3277957    0.0638192    4.3242898 
C    -2.0967006    2.6776252    3.2019834 
C    -2.2461490    3.2454725    1.9288693 
C    -1.3052578    2.9708687    0.9320699 
C    -0.1804832    2.1343993    1.1694092 
C     0.9624475    3.2316675   -1.3448268 
C     1.4287131    3.0490213   -2.6646463 
C     1.7717539    4.1481765   -3.4519736 
C     1.6469999    5.4651881   -2.9605345 
C     1.9722428    6.6460539   -3.8443232 
C     1.1902833    5.6365528   -1.6411104 
C     0.8580482    4.5381071   -0.8337348 
C     2.4828082    1.2337783   -0.1491141 
C     2.9556617    0.0139854   -0.6644620 
C     4.3145743   -0.3060685   -0.5878943 
C     5.2383393    0.5790831    0.0020841 
C     6.6913115    0.1939611    0.1469688 
C     4.7615243    1.8203655    0.4721112 
C     3.4065181    2.1551229    0.3839957 
H    -0.6686713   -3.4099267    2.8830487 
H    -2.3364677   -3.5556587    4.7056200 
H    -5.1766358   -2.7205471    5.0176533 
H    -5.0453450   -0.9658083    5.3077147 
H    -3.9687916   -2.1083630    6.1681996 
H    -4.2829882    0.0090280    3.2190521 
H    -2.6338920    0.1396013    1.3714824 
H     0.7971940   -2.1890832   -1.9414263 
H     0.9688226   -4.2613186   -3.2883720 
H    -1.1043225   -6.9103605   -3.2468750 
H     0.6395276   -6.6659997   -3.5326453 
H     0.0785264   -7.6189413   -2.1258520 
H    -1.4148624   -6.3574353   -0.3554247 
H    -1.5698726   -4.3121011    1.0044436 
H     1.8169480   -3.4467086    0.5656867 
H     4.1016498   -3.5376219    1.4799957 
H     4.9625390   -1.6487540    2.9020171 
H     4.3843248    1.0677290    3.4418663 
H     3.4977363    0.2764560    4.7619258 
H     1.9688195    2.1508992    4.3898506 
H     2.4534702    2.2694438    2.6861192 
H    -0.2579962    1.8595728    5.4599313 
H    -1.5881708    0.7042697    5.2260653 
H     1.0586475   -0.1897036    5.1095789 
H    -0.1988527   -0.8621662    4.0505800 
H    -2.8222792    2.8855741    3.9955854 
H    -3.0940787    3.9018712    1.7074375 
H    -1.4457459    3.4057680   -0.0625601 
H     1.5301252    2.0365650   -3.0711734 
H     2.1273177    3.9841686   -4.4746317 
H     1.2241002    6.7379631   -4.6543288 
H     2.9578037    6.5245460   -4.3271732 
H     1.9768656    7.5916053   -3.2783303 
H     1.0992008    6.6479744   -1.2290114 
H     0.5304703    4.7092770    0.1965307 
H     2.2509151   -0.6909897   -1.1153241 
H     4.6619471   -1.2672187   -0.9816682 
H     7.3381811    1.0777730    0.2716165 
H     7.0465423   -0.3808340   -0.7250959 
H     6.8275296   -0.4482713    1.0386077 
H     5.4659530    2.5415606    0.9017366 
H     3.0694383    3.1439164    0.7132848 
