118
Energy =
C     2.9869232   -1.7897106   -1.2057995 
C     3.3544944   -1.4208732    0.1000869 
C     2.6356593   -1.9291097    1.2394082 
H     4.0917792   -0.6185805    0.2340314 
Pd    1.2129005   -0.8443665   -0.0399199 
P    -0.7342324   -1.2211003    1.2178277 
P     0.2742660    0.8985566   -1.3410495 
H     2.2967320   -2.6424660   -1.3141682 
H     2.3104632   -2.9765819    1.2157059 
C     4.7794468   -0.5507481   -4.8999653 
C     5.5100199   -0.4405019   -3.7056992 
C     4.9363217   -0.8281906   -2.4901141 
C     3.6222081   -1.3489968   -2.4525222 
C     2.9043539   -1.4685714   -3.6662224 
C     3.4726264   -1.0634798   -4.8766914 
H     5.2318033   -0.2450723   -5.8490294 
H     6.5350785   -0.0561607   -3.7241364 
H     5.5228916   -0.7573994   -1.5682737 
H     1.8834706   -1.8667126   -3.6450084 
H     2.8987374   -1.1471688   -5.8048817 
C     2.8033047   -0.1141289    5.1482296 
C     2.3972440   -1.4491074    4.9981024 
C     2.3765559   -2.0454235    3.7312798 
C     2.7523818   -1.3164511    2.5786321 
C     3.1775138    0.0258399    2.7502286 
C     3.2022142    0.6177010    4.0168779 
H     2.8181775    0.3507835    6.1393690 
H     2.0923235   -2.0333450    5.8723670 
H     2.0546509   -3.0856878    3.6284969 
H     3.4782915    0.6204363    1.8812981 
H     3.5312240    1.6570601    4.1220837 
C     0.6692884    1.9426279   -4.0260733 
C     1.4962352    2.5090026   -5.0077281 
C     2.8793753    2.6646700   -4.8034442 
C     3.7761056    3.2489202   -5.8693528 
C     3.4139669    2.2434376   -3.5677987 
C     2.6035962    1.6585960   -2.5942865 
C     1.2195943    1.4899368   -2.8124632 
C     0.3931830    2.4559794   -0.3650381 
C     1.0763841    2.4569199    0.8628341 
C     1.3040835    3.6551358    1.5484196 
C     0.8569643    4.8856222    1.0315433 
C     1.1078072    6.1781315    1.7733116 
C     0.1963252    4.8781324   -0.2158702 
C    -0.0169814    3.6870811   -0.9166042 
C    -1.4427805    0.5465150   -1.9071610 
C    -1.4959820   -0.1577038   -3.1383995 
C    -2.6950149   -0.6488627   -3.6619331 
C    -3.8839638   -0.4951391   -2.9378242 
C    -3.8423359    0.1381367   -1.6928839 
C    -5.0158547    0.3622671   -0.7671596 
C    -4.3461863    0.7520821    0.5606709 
C    -2.6406909    0.6642562   -1.1549420 
C    -2.9698731    1.3838819    0.1609805 
C    -2.0387117    1.3880158    1.3788473 
C    -2.1374562    2.6453714    2.0240739 
C    -3.0343255    3.5932918    1.2605634 
C    -3.1784085    2.9122854   -0.1115023 
C    -1.4641146    2.9182346    3.2182005 
C    -0.6302584    1.9360112    3.7697462 
C    -0.5041531    0.6948845    3.1398149 
C    -1.2431360    0.3746708    1.9697960 
C    -0.6353342   -2.4726445    2.5728612 
C    -0.1590454   -3.7438786    2.1814860 
C    -0.1080662   -4.8008810    3.0920550 
C    -0.5327802   -4.6318404    4.4289072 
C    -0.4520669   -5.7753032    5.4131546 
C    -1.0361007   -3.3722498    4.8004000 
C    -1.0978573   -2.3062862    3.8893008 
C    -2.0445544   -2.0659846    0.2453198 
C    -1.7376141   -2.5861823   -1.0239130 
C    -2.6687086   -3.3770168   -1.7076808 
C    -3.9276384   -3.6670494   -1.1496841 
C    -4.9558866   -4.4608157   -1.9206126 
C    -4.2088986   -3.1754924    0.1433028 
C    -3.2767043   -2.4040591    0.8422154 
H    -0.4065804    1.8737437   -4.2120993 
H     1.0484721    2.8493386   -5.9483809 
H     4.4214962    2.4623220   -6.3039235 
H     4.4449451    4.0209125   -5.4501524 
H     3.1951502    3.7004544   -6.6897752 
H     4.4840797    2.3662187   -3.3711463 
H     3.0419440    1.3440409   -1.6399440 
H     1.4135107    1.5086522    1.2952522 
H     1.8221847    3.6263481    2.5134247 
H     1.0826510    6.0257651    2.8658085 
H     2.1057627    6.5843273    1.5211854 
H     0.3629726    6.9476257    1.5104112 
H    -0.1453167    5.8243384   -0.6506231 
H    -0.4894417    3.7171877   -1.9045694 
H    -0.5691600   -0.3395909   -3.6920153 
H    -2.6923510   -1.1729149   -4.6231957 
H    -4.8297802   -0.8878264   -3.3257843 
H    -5.6591929    1.1747688   -1.1564381 
H    -5.6509485   -0.5363528   -0.6772497 
H    -4.9429541    1.4487105    1.1720095 
H    -4.1656202   -0.1463159    1.1681973 
H    -2.6017966    4.6063527    1.1887511 
H    -4.0102183    3.6936700    1.7737040 
H    -4.1469967    3.1024770   -0.6024975 
H    -2.3888440    3.2671873   -0.7892660 
H    -1.5606736    3.9001648    3.6933185 
H    -0.0508803    2.1380831    4.6762754 
H     0.2068844   -0.0303862    3.5492668 
H     0.1571399   -3.9086440    1.1443333 
H     0.2657183   -5.7769614    2.7623936 
H    -0.9748613   -6.6680279    5.0257883 
H    -0.8992006   -5.5080773    6.3840709 
H     0.5993445   -6.0677893    5.5898903 
H    -1.3953198   -3.2166948    5.8239367 
H    -1.5136302   -1.3498092    4.2177869 
H    -0.7656013   -2.3625670   -1.4786128 
H    -2.4156581   -3.7647775   -2.7004801 
H    -4.4810957   -5.1728188   -2.6162082 
H    -5.5885973   -3.7821001   -2.5248217 
H    -5.6254323   -5.0218092   -1.2475365 
H    -5.1671330   -3.4182515    0.6164473 
H    -3.4962227   -2.0841260    1.8664746 
