118
Energy =
C     3.2833685   -0.5179946   -0.7312367 
C     3.0235299   -1.6460295    0.1175778 
C     2.1607915   -2.6780951   -0.2985582 
H     3.3621870   -1.6334108    1.1613607 
Pd    1.1153695   -0.6180850   -0.3207340 
P    -0.7905021   -1.0569192    0.9714873 
P     0.4017323    1.2771524   -1.4793034 
H     3.3513572   -0.7022435   -1.8107723 
H     1.9095570   -2.7253552   -1.3705770 
C     5.1420150    3.1382081    0.5879455 
C     4.5714804    2.2658882    1.5305013 
C     3.9812105    1.0689192    1.1153878 
C     3.9486722    0.7098949   -0.2547406 
C     4.5378872    1.5924291   -1.1879911 
C     5.1243245    2.7933858   -0.7712443 
H     5.5990443    4.0781785    0.9138494 
H     4.5834779    2.5249335    2.5946341 
H     3.5249103    0.4114123    1.8635761 
H     4.5270325    1.3321729   -2.2513750 
H     5.5683881    3.4632482   -1.5149985 
C     1.0969768   -6.2426008    1.8459219 
C     0.3876082   -5.8604825    0.6964585 
C     0.7444015   -4.6956952    0.0107332 
C     1.8037218   -3.8771914    0.4700106 
C     2.5045846   -4.2713555    1.6323848 
C     2.1571232   -5.4459057    2.3067199 
H     0.8299302   -7.1619668    2.3773037 
H    -0.4394651   -6.4764346    0.3287028 
H     0.1933348   -4.4048297   -0.8892986 
H     3.3426020   -3.6709113    1.9978705 
H     2.7207514   -5.7449250    3.1963506 
C     2.1113290    0.6691183   -3.6396427 
C     3.0551701    0.9394345   -4.6337313 
C     3.5432795    2.2488805   -4.8396775 
C     4.5571852    2.5340711   -5.9223594 
C     3.0503500    3.2665829   -4.0039527 
C     2.0949788    3.0044683   -3.0103742 
C     1.5955050    1.7028470   -2.8225493 
C     0.2296451    2.8081438   -0.5059581 
C     0.7561138    2.8265792    0.7997787 
C     0.6759643    3.9850749    1.5768171 
C     0.0713798    5.1561192    1.0772866 
C    -0.0722199    6.3824437    1.9471935 
C    -0.4236094    5.1384554   -0.2431983 
C    -0.3445356    3.9838145   -1.0306870 
C    -1.1900623    0.8245239   -2.3318440 
C    -1.0730431    0.3668283   -3.6671124 
C    -2.1310349   -0.2564691   -4.3396329 
C    -3.3572984   -0.4379568   -3.6928069 
C    -3.5104517    0.0483697   -2.3903227 
C    -4.7920827    0.0277902   -1.5893777 
C    -4.3475852    0.4788943   -0.1885755 
C    -2.4525053    0.6769533   -1.6899624 
C    -3.0317386    1.2987148   -0.4126211 
C    -2.3076986    1.4220884    0.9313699 
C    -2.6845813    2.6459480    1.5330315 
C    -3.5446145    3.4873695    0.6185693 
C    -3.4164474    2.7832118   -0.7410038 
C    -2.3294724    2.9659793    2.8476620 
C    -1.6148794    2.0294658    3.6007546 
C    -1.2429404    0.8073521    3.0273254 
C    -1.5595004    0.4774752    1.6874075 
C    -0.0981567   -1.9424986    2.4346365 
C     1.0550707   -1.3954033    3.0414162 
C     1.6330103   -1.9996090    4.1632970 
C     1.0950798   -3.1819944    4.7085804 
C     1.7098479   -3.8457011    5.9184187 
C    -0.0297248   -3.7431316    4.0736842 
C    -0.6192673   -3.1414883    2.9550122 
C    -2.1047963   -2.1333983    0.3028834 
C    -1.9930653   -2.5867323   -1.0232557 
C    -2.9734456   -3.4237183   -1.5721106 
C    -4.0888942   -3.8299661   -0.8155205 
C    -5.1464564   -4.7385317   -1.3979829 
C    -4.1984581   -3.3615227    0.5132057 
C    -3.2274970   -2.5221085    1.0670866 
H     1.7761695   -0.3637284   -3.4884201 
H     3.4309630    0.1179847   -5.2542444 
H     4.9890195    3.5424609   -5.8183915 
H     4.0866546    2.4690194   -6.9211285 
H     5.3802304    1.7983963   -5.9031784 
H     3.4255466    4.2893698   -4.1213684 
H     1.7614111    3.8235019   -2.3681787 
H     1.2206630    1.9222354    1.2059354 
H     1.0804467    3.9764788    2.5945738 
H     0.8031308    6.5156873    2.6051783 
H    -0.2015773    7.2970460    1.3456298 
H    -0.9604498    6.2846676    2.6007988 
H    -0.8786094    6.0435564   -0.6612127 
H    -0.7248710    3.9992693   -2.0580199 
H    -0.1337878    0.5042829   -4.2051200 
H    -1.9884902   -0.5926422   -5.3718733 
H    -4.1935371   -0.9306450   -4.2003471 
H    -5.5273106    0.7239262   -2.0366627 
H    -5.2602913   -0.9721972   -1.5830624 
H    -5.1018317    1.0811725    0.3442401 
H    -4.1270084   -0.3974415    0.4357220 
H    -3.2123857    4.5398987    0.5848158 
H    -4.5895486    3.4920360    0.9839138 
H    -4.3317818    2.8292290   -1.3536995 
H    -2.6077235    3.2397199   -1.3286572 
H    -2.6264560    3.9269456    3.2815912 
H    -1.3451147    2.2391237    4.6410163 
H    -0.6961649    0.0933290    3.6457077 
H     1.4919794   -0.4730432    2.6391405 
H     2.5196021   -1.5463701    4.6214308 
H     1.0101239   -3.8294408    6.7739388 
H     2.6400139   -3.3438883    6.2305805 
H     1.9413527   -4.9061981    5.7117812 
H    -0.4507601   -4.6808801    4.4529943 
H    -1.4771068   -3.6253451    2.4813553 
H    -1.1463160   -2.2562530   -1.6364671 
H    -2.8766850   -3.7528779   -2.6124096 
H    -5.1197321   -5.7306209   -0.9104316 
H    -5.0023923   -4.8888519   -2.4800848 
H    -6.1581911   -4.3266423   -1.2353895 
H    -5.0654574   -3.6518705    1.1174349 
H    -3.3489759   -2.1525604    2.0914642 
