118
Energy =
C    -1.1862976    1.0623792   -3.0063955 
C    -1.8296359   -0.2170878   -2.9097749 
C    -2.8209128   -0.4536141   -1.9381424 
H    -1.4390557   -1.0691446   -3.4805062 
Pd   -0.8304593    0.2356391   -0.9891568 
P    -0.4588862   -1.4625239    0.5830425 
P     0.5060168    1.9249417   -0.0929561 
H    -1.7993688    1.9522095   -2.8162895 
H    -3.2646416    0.4263491   -1.4448425 
C     2.4144031    1.8090096   -5.2511721 
C     1.5541124    2.8612718   -4.9058704 
C     0.3751979    2.6060548   -4.1954377 
C     0.0314895    1.2913853   -3.8074795 
C     0.9071938    0.2382750   -4.1699721 
C     2.0814600    0.4941687   -4.8835319 
H     3.3371510    2.0085999   -5.8055633 
H     1.8009253    3.8897969   -5.1893276 
H    -0.2896049    3.4337732   -3.9283335 
H     0.6748595   -0.7913117   -3.8763341 
H     2.7454568   -0.3345862   -5.1517548 
C    -5.0452874   -4.0647315   -1.2677697 
C    -5.0729090   -3.0221236   -0.3282345 
C    -4.3412045   -1.8536909   -0.5602354 
C    -3.5498955   -1.7101433   -1.7248668 
C    -3.5270968   -2.7708663   -2.6589490 
C    -4.2739463   -3.9312974   -2.4333086 
H    -5.6288473   -4.9753195   -1.0970091 
H    -5.6733143   -3.1161516    0.5824624 
H    -4.3716826   -1.0397357    0.1710145 
H    -2.9432261   -2.6788017   -3.5793543 
H    -4.2589640   -4.7368134   -3.1744715 
C    -1.4369066   -2.6417424    2.9806697 
C    -2.2987811   -2.6960912    4.0797599 
C    -3.2758523   -1.6977226    4.2936228 
C    -4.1843439   -1.7612204    5.4993546 
C    -3.3584369   -0.6412745    3.3672587 
C    -2.5015721   -0.5813165    2.2604646 
C    -1.5376786   -1.5829521    2.0508173 
C    -0.7551526   -2.9959702   -0.3986459 
C    -1.5622316   -4.0653895    0.0261884 
C    -1.7263810   -5.1957088   -0.7869260 
C    -1.1047449   -5.2977784   -2.0445084 
C    -1.3150080   -6.5051788   -2.9272791 
C    -0.3207403   -4.2087399   -2.4790476 
C    -0.1571867   -3.0751128   -1.6783875 
C     1.3179699   -1.5952203    1.1149335 
C     2.1195337   -2.5799349    0.4884889 
C     3.5057955   -2.6410703    0.6766097 
C     4.1391261   -1.7162075    1.5123980 
C     3.3614573   -0.7578577    2.1709041 
C     3.8612836    0.2405958    3.1893313 
C     2.6559878    1.1695663    3.4009711 
C     1.9617087   -0.6712731    1.9840895 
C     1.3967876    0.3243436    3.0015222 
C     0.2411059    1.3019288    2.7523471 
C    -0.4781816    1.4484194    3.9631582 
C    -0.0077104    0.4828740    5.0265949 
C     0.9135782   -0.4777186    4.2573672 
C    -1.4681608    2.4223617    4.1294806 
C    -1.7237131    3.3090720    3.0790024 
C    -1.0205723    3.1849659    1.8747161 
C    -0.0475692    2.1768894    1.6666753 
C     0.1936815    3.5257063   -0.9593414 
C     1.2314994    4.3404146   -1.4476405 
C     0.9431980    5.5158929   -2.1571207 
C    -0.3801721    5.9199983   -2.4081844 
C    -0.6900298    7.1983776   -3.1508059 
C    -1.4189614    5.0878562   -1.9356645 
C    -1.1392095    3.9104438   -1.2372066 
C     2.3085549    1.6799731   -0.2014412 
C     2.7879089    0.6361454   -1.0159932 
C     4.1617501    0.4241622   -1.1559007 
C     5.0961017    1.2434069   -0.4905926 
C     6.5770210    0.9648145   -0.5934940 
C     4.6075693    2.3067034    0.2964041 
C     3.2328924    2.5297722    0.4392137 
H    -0.6722176   -3.4157331    2.8508271 
H    -2.2080561   -3.5230586    4.7932752 
H    -4.7132806   -2.7297989    5.5463025 
H    -4.9371143   -0.9568042    5.4843441 
H    -3.6012438   -1.6669563    6.4340367 
H    -4.0938440    0.1560732    3.5202083 
H    -2.5602720    0.2644055    1.5649153 
H    -2.0814447   -4.0218403    0.9867703 
H    -2.3632154   -6.0138778   -0.4329309 
H    -1.5835969   -7.3967115   -2.3371874 
H    -2.1389812   -6.3209240   -3.6434231 
H    -0.4136195   -6.7358571   -3.5197860 
H     0.1686606   -4.2500028   -3.4590353 
H     0.4625549   -2.2440308   -2.0373716 
H     1.6542084   -3.3240109   -0.1603583 
H     4.0832189   -3.4201632    0.1682161 
H     5.2228021   -1.7502133    1.6686465 
H     4.7578541    0.7812490    2.8385768 
H     4.1466919   -0.2838700    4.1215091 
H     2.5654740    1.5530098    4.4305447 
H     2.7277202    2.0399999    2.7339715 
H     0.5338875    1.0314202    5.8208739 
H    -0.8500385   -0.0385866    5.5143554 
H     1.7709169   -0.8397206    4.8484974 
H     0.3464973   -1.3592197    3.9284421 
H    -2.0141670    2.4989173    5.0758642 
H    -2.4666891    4.1058893    3.1882534 
H    -1.2350770    3.9011045    1.0799733 
H     2.2759991    4.0542053   -1.3003831 
H     1.7730397    6.1257376   -2.5314827 
H     0.1963581    7.5862577   -3.6784057 
H    -1.0319391    7.9807381   -2.4475146 
H    -1.4978093    7.0484728   -3.8879636 
H    -2.4622595    5.3611002   -2.1302083 
H    -1.9697091    3.2734489   -0.9107032 
H     2.0748160   -0.0152434   -1.5317797 
H     4.5153091   -0.4001778   -1.7843959 
H     6.8600390    0.1461206    0.0958717 
H     7.1789413    1.8485498   -0.3258361 
H     6.8574361    0.6443470   -1.6112555 
H     5.3152102    2.9702868    0.8061393 
H     2.8786950    3.3703537    1.0459619 
