206
Energy =
C     0.6693276    1.2092127   -3.5526903 
C    -0.4624967    0.4075875   -3.8952915 
C    -1.7479133    0.6869001   -3.3816675 
H    -0.3086814   -0.5468004   -4.4146665 
Pd   -0.2370860    0.3837583   -1.6961644 
P    -1.4538465   -0.8082928   -0.1105394 
P     1.3609370    1.0906537   -0.1476994 
H     0.5033461    2.2814492   -3.3853026 
H    -1.9254671    1.6939118   -2.9702556 
C     4.7486581    0.1537147   -4.4512354 
C     3.7474999   -0.8313590   -4.4891033 
C     2.4215604   -0.5002962   -4.1970242 
C     2.0578757    0.8296443   -3.8764666 
C     3.0735597    1.8120729   -3.8508537 
C     4.4034690    1.4745555   -4.1309683 
H     5.7881908   -0.1079807   -4.6737403 
H     4.0037787   -1.8649413   -4.7440381 
H     1.6607505   -1.2881932   -4.2082728 
H     2.8133890    2.8475431   -3.6058067 
H     5.1745669    2.2509052   -4.1045732 
C    -5.3294554   -1.5466866   -4.1923357 
C    -5.2588592   -0.6882361   -3.0839176 
C    -4.0916642    0.0382040   -2.8313070 
C    -2.9624329   -0.0926016   -3.6718273 
C    -3.0492348   -0.9552780   -4.7877487 
C    -4.2234244   -1.6705381   -5.0465521 
H    -6.2454824   -2.1098839   -4.3966888 
H    -6.1168288   -0.5867756   -2.4110697 
H    -4.0389602    0.6981695   -1.9591349 
H    -2.2063130   -1.0378412   -5.4810099 
H    -4.2818001   -2.3172403   -5.9280290 
C    -4.3414757    3.7257700   -0.8780969 
C    -4.1537223    3.6952861    0.6603396 
C    -2.9308886    4.5667221    1.0458503 
C    -5.4165221    4.2938246    1.3144897 
C    -3.8848623    2.2516328    1.1296703 
C    -2.9091231    1.4765295    0.4727817 
C    -4.5532133    1.6610931    2.2157311 
C    -4.2661000    0.3571985    2.6828917 
C    -5.0562812   -0.2190507    3.8739901 
C    -4.5093480   -1.5938195    4.3131564 
C    -4.9733328    0.7510752    5.0791470 
C    -6.5391606   -0.3862523    3.4504328 
C    -3.2811885   -0.3816886    2.0098828 
C    -2.6268115    0.1682937    0.8895983 
C    -2.3907600   -2.1665167   -0.9099353 
C    -1.7454377   -2.8207504   -1.9753144 
C    -2.3163636   -3.9545997   -2.5776112 
C    -1.5681588   -4.7543176   -3.6625843 
C    -2.5416262   -5.2487137   -4.7590463 
C    -0.9027984   -5.9749394   -2.9726621 
C    -0.4678503   -3.9078488   -4.3418758 
C    -3.5697902   -4.3809467   -2.0965169 
C    -4.2598136   -3.7243013   -1.0571057 
C    -3.6472894   -2.6061738   -0.4642198 
C    -5.6277285   -4.2573402   -0.5860122 
C    -6.6172839   -4.2844823   -1.7782329 
C    -5.4413838   -5.6942381   -0.0334083 
C    -6.2365281   -3.3796238    0.5279176 
C    -0.3439415   -1.6938463    1.0711268 
C    -0.1324522   -3.0807673    0.9282896 
C     0.7685465   -3.7387838    1.7707812 
C     1.4687578   -3.0388548    2.7588698 
C     0.3530571   -0.9661928    2.0647668 
C     1.2596296   -1.6568876    2.9123661 
C     0.1406520    0.4874657    2.3342014 
C    -0.4843901    0.8352788    3.5606663 
O    -0.8945407   -0.2121966    4.3341674 
C    -1.0935940    0.0066534    5.7442745 
C     0.2233042    0.2442841    6.5019090 
C     0.9159284   -1.0286762    7.0212253 
C     1.3911338   -2.0509595    5.9729070 
C     2.4632706   -1.5343453    4.9993825 
O     1.8978186   -0.8898266    3.8426400 
C    -0.6655127    2.1842303    3.9134828 
C    -0.2096082    3.1898316    3.0559611 
C     0.4195855    2.8709696    1.8484447 
C     0.5945456    1.5216917    1.4803329 
C     2.0981324    2.6702750   -0.7239655 
C     1.2016948    3.6200584   -1.2549307 
C     1.6610719    4.8448044   -1.7616944 
C     0.7150458    5.8823457   -2.3958603 
C     0.7992685    7.2087955   -1.5988658 
C    -0.7530171    5.4046974   -2.3966671 
C     1.1500822    6.1226147   -3.8648130 
C     3.0492078    5.0927496   -1.6991117 
C     3.9719482    4.1663501   -1.1781513 
C     3.4747307    2.9370430   -0.6988010 
C     5.4710189    4.5214100   -1.1195062 
C     5.9624131    5.0073118   -2.5061743 
C     5.6606041    5.6578627   -0.0804117 
C     6.3311300    3.3129816   -0.6931149 
C     2.7183191   -0.0669267    0.2316644 
C     3.6475625    0.2272742    1.2468277 
C     4.7209307   -0.6455127    1.4953000 
C     5.8288586   -0.3197645    2.5165085 
C     6.0688515   -1.5238269    3.4603138 
C     7.1352810   -0.0215059    1.7342764 
C     5.4695449    0.9104876    3.3766829 
C     4.7873218   -1.8315835    0.7365324 
C     3.8423510   -2.1760765   -0.2497561 
C     2.8116012   -1.2567941   -0.5098388 
C     3.9783499   -3.5064640   -1.0153362 
C     5.2443530   -3.4366979   -1.9078083 
C     2.7484864   -3.7784737   -1.9076166 
C     4.1165541   -4.6791823   -0.0122764 
H    -3.4345760    3.3935297   -1.4129898 
H    -5.1791903    3.0771532   -1.1888627 
H    -4.5596301    4.7550037   -1.2131253 
H    -2.0001491    4.1646689    0.6103739 
H    -2.8001854    4.5909002    2.1411714 
H    -3.0656970    5.6028944    0.6862989 
H    -5.5894575    5.3124429    0.9264615 
H    -6.3136946    3.6896099    1.0919697 
H    -5.3132706    4.3727919    2.4108191 
H    -2.3449731    1.8888285   -0.3713377 
H    -5.3260626    2.2350936    2.7328579 
H    -5.0663606   -1.9527298    5.1956264 
H    -3.4399853   -1.5361608    4.5790882 
H    -4.6249053   -2.3519103    3.5187602 
H    -3.9246143    0.9089906    5.3828472 
H    -5.5246257    0.3356831    5.9411909 
H    -5.4117236    1.7365029    4.8468474 
H    -6.9883251    0.5796821    3.1609722 
H    -6.6253233   -1.0738086    2.5912897 
H    -7.1320022   -0.7997991    4.2859233 
H    -3.0025323   -1.3822968    2.3474645 
H    -0.7756351   -2.4402457   -2.3135246 
H    -1.9816525   -5.7803888   -5.5480569 
H    -3.0754617   -4.4013935   -5.2217619 
H    -3.2929755   -5.9520546   -4.3620669 
H    -0.3547880   -6.5868649   -3.7119209 
H    -0.1872841   -5.6439547   -2.1987451 
H    -1.6594582   -6.6154684   -2.4867698 
H     0.3264013   -3.6142350   -3.6347850 
H    -0.8925026   -2.9932199   -4.7910354 
H     0.0105018   -4.4928956   -5.1459105 
H    -4.0306384   -5.2637095   -2.5497203 
H    -4.1457917   -2.0675394    0.3430627 
H    -7.5909944   -4.6938018   -1.4554292 
H    -6.2457924   -4.9116624   -2.6066603 
H    -6.7827069   -3.2668040   -2.1701846 
H    -5.0517983   -6.3795580   -0.8058695 
H    -4.7339139   -5.6985888    0.8144246 
H    -6.4076849   -6.0972753    0.3189963 
H    -7.2195466   -3.7831771    0.8252508 
H    -5.5986583   -3.3609765    1.4290660 
H    -6.3885413   -2.3388270    0.1904178 
H    -0.6824200   -3.6480339    0.1738842 
H     0.9207582   -4.8177367    1.6637279 
H     2.1674147   -3.5725688    3.4066531 
H    -1.5990016   -0.9093632    6.0915137 
H    -1.7996852    0.8429749    5.8963933 
H     0.9017726    0.8258867    5.8500667 
H     0.0045864    0.8920895    7.3706621 
H     1.7870235   -0.7226381    7.6320923 
H     0.2267951   -1.5433691    7.7182654 
H     1.8094650   -2.9217426    6.5106786 
H     0.5395385   -2.4369948    5.3817462 
H     3.0893465   -0.7554225    5.4646478 
H     3.1396461   -2.3474800    4.6805200 
H    -1.1502987    2.4536964    4.8543999 
H    -0.3403729    4.2395129    3.3378235 
H     0.7892760    3.6721611    1.2047416 
H     0.1340444    3.3791496   -1.2760027 
H     0.1346095    7.9680414   -2.0479904 
H     0.4905202    7.0553844   -0.5497008 
H     1.8241774    7.6177924   -1.5959896 
H    -1.3927413    6.1709497   -2.8669413 
H    -1.1324145    5.2369964   -1.3741507 
H    -0.8804635    4.4700449   -2.9729259 
H     0.4803207    6.8563791   -4.3474618 
H     1.1080329    5.1827853   -4.4441092 
H     2.1796744    6.5142695   -3.9275193 
H     3.4256517    6.0468264   -2.0820262 
H     4.1581914    2.1766693   -0.3182162 
H     5.4302796    5.9139697   -2.8409172 
H     7.0382554    5.2515356   -2.4618988 
H     5.8187249    4.2267557   -3.2729804 
H     5.0869461    6.5586459   -0.3602045 
H     6.7264159    5.9399636   -0.0105355 
H     5.3208472    5.3347456    0.9193087 
H     7.3976626    3.5959810   -0.6931255 
H     6.2057234    2.4586049   -1.3819102 
H     6.0796574    2.9741598    0.3270308 
H     3.5177718    1.1364806    1.8384195 
H     6.3889694   -2.4246783    2.9096133 
H     5.1528310   -1.7742545    4.0202862 
H     6.8626919   -1.2817440    4.1888117 
H     6.9960369    0.8301382    1.0465786 
H     7.9539967    0.2263476    2.4335252 
H     7.4504013   -0.8930123    1.1343282 
H     5.3841550    1.8269293    2.7662294 
H     6.2600781    1.0867238    4.1263940 
H     4.5143869    0.7628190    3.9105814 
H     5.6154531   -2.5224692    0.9248904 
H     2.0572013   -1.4541459   -1.2765593 
H     5.3599781   -4.3706458   -2.4869366 
H     5.1771953   -2.5913341   -2.6134592 
H     6.1554173   -3.2993592   -1.2995858 
H     2.6395448   -3.0113319   -2.6921940 
H     1.8180887   -3.8021870   -1.3129384 
H     2.8568822   -4.7552740   -2.4100043 
H     5.0168774   -4.5797034    0.6178553 
H     3.2378302   -4.7281336    0.6526874 
H     4.1964503   -5.6366970   -0.5569740 
