200
Energy =
C     0.7540124   -2.9083243    2.2345148 
C     0.6730938   -1.9342020    3.2779307 
C    -0.5345568   -1.2585472    3.5592695 
H     1.5967404   -1.5724293    3.7482543 
Pd    0.0851049   -0.9702582    1.3818367 
P    -0.4951355    1.2559717    0.9874180 
P     0.1922587   -1.4813378   -0.8879167 
H    -0.1345384   -3.5262501    2.0477337 
H    -1.4678267   -1.7069478    3.1809170 
C     4.4561983   -4.6419310    0.8731590 
C     4.4583271   -3.3716179    1.4746018 
C     3.2621364   -2.7988256    1.9164630 
C     2.0324454   -3.4843460    1.7721287 
C     2.0450780   -4.7561464    1.1588054 
C     3.2440169   -5.3299619    0.7194844 
H     5.3939050   -5.0894179    0.5279900 
H     5.3991656   -2.8250260    1.5984991 
H     3.2793475   -1.7997655    2.3664627 
H     1.1033917   -5.2968979    1.0245988 
H     3.2273327   -6.3220244    0.2564634 
C    -1.1028831    1.7578791    6.5670814 
C    -2.0171892    1.6213241    5.5108886 
C    -1.8293708    0.6307822    4.5427469 
C    -0.7102419   -0.2312348    4.5985864 
C     0.1967371   -0.0901730    5.6728597 
C    -0.0025218    0.8913626    6.6495897 
H    -1.2517021    2.5295679    7.3289911 
H    -2.8790548    2.2928509    5.4388429 
H    -2.5396123    0.5379988    3.7137439 
H     1.0433499   -0.7776598    5.7666087 
H     0.6970628    0.9720192    7.4878484 
C     3.6684402    1.1666822    4.3468333 
C     3.2368283    2.6410915    4.5158143 
C     4.2410835    3.5466407    3.7542121 
C     3.2762378    2.9849103    6.0239876 
C     1.8357318    2.8967305    3.9259879 
C     1.2802767    2.0458263    2.9545935 
C     1.0937504    4.0382553    4.2882262 
C    -0.1614438    4.3517335    3.7274340 
C    -0.9123953    5.6208308    4.1769829 
C    -2.2809263    5.7619723    3.4762183 
C    -1.1525344    5.5697006    5.7072408 
C    -0.0509381    6.8622341    3.8282540 
C    -0.6757471    3.4884656    2.7451888 
C     0.0468865    2.3507632    2.3520746 
C    -2.2728900    1.5482775    0.6979903 
C    -2.7415941    2.7723644    0.1891258 
C    -4.1174349    2.9738160   -0.0110603 
C    -4.6819951    4.2945025   -0.5676443 
C    -5.5910461    4.9473360    0.5045637 
C    -5.5064283    3.9927388   -1.8452928 
C    -3.5605768    5.2875795   -0.9395728 
C    -4.9902394    1.9112580    0.3027071 
C    -4.5461622    0.6609379    0.7761804 
C    -3.1649210    0.4986122    0.9724573 
C    -5.5518057   -0.4683397    1.0696685 
C    -6.4230634   -0.0557260    2.2836032 
C    -6.4551572   -0.6996771   -0.1679154 
C    -4.8366979   -1.7970744    1.3970588 
C     0.3510894    1.9712108   -0.4912927 
C     1.4237523    2.8705999   -0.3275198 
C     2.0885352    3.3871292   -1.4458194 
C     1.6929161    3.0245499   -2.7376909 
C    -0.0596201    1.5865596   -1.7912391 
C     0.6156088    2.1418639   -2.9058869 
C    -1.2129977    0.6779235   -2.0769147 
C    -2.3276186    1.2418492   -2.7450294 
O    -2.2927590    2.5896743   -2.9907721 
C    -2.4383661    3.0648611   -4.3485702 
C    -1.1290140    3.7129918   -4.8072804 
C    -0.0228179    2.7172160   -5.1676559 
O     0.1863434    1.7275585   -4.1420080 
C    -3.4430006    0.4638853   -3.0894565 
C    -3.4397196   -0.9054163   -2.8039274 
C    -2.3404028   -1.4928967   -2.1658767 
C    -1.2271102   -0.7124320   -1.7942681 
C     1.6830226   -0.9270120   -1.7795820 
C     1.7174702   -0.9711382   -3.1853598 
C     2.8789327   -0.5902200   -3.8749626 
C     2.9792392   -0.6493065   -5.4108957 
C     1.6380009   -1.0546443   -6.0579986 
C     4.0568816   -1.6930909   -5.8018877 
C     3.3797154    0.7458190   -5.9534275 
C     3.9773170   -0.1447970   -3.1104160 
C     3.9574714   -0.0557921   -1.7049453 
C     2.7878147   -0.4713649   -1.0441536 
C     5.1952662    0.4527015   -0.9409866 
C     4.8764082    0.7145642    0.5468151 
C     5.6999963    1.7780241   -1.5638748 
C     6.3066602   -0.6243157   -1.0372332 
C     0.0452754   -3.2831292   -1.2080412 
C    -0.9508887   -4.0052745   -0.5151761 
C    -1.0875037   -5.3894782   -0.6929986 
C    -2.1469656   -6.2185065    0.0591310 
C    -1.4306089   -7.2702770    0.9453611 
C    -3.0592918   -6.9368952   -0.9678784 
C    -3.0341218   -5.3402066    0.9662453 
C    -0.1936239   -6.0312211   -1.5832763 
C     0.8089820   -5.3412731   -2.2838731 
C     0.9193537   -3.9506784   -2.0731551 
C     1.7361062   -6.0239831   -3.3089615 
C     1.2381404   -5.6332391   -4.7266013 
C     3.1976916   -5.5388847   -3.1373513 
C     1.7137548   -7.5612012   -3.1744243 
H     4.6478919    1.0069035    4.8292358 
H     3.7775131    0.8845998    3.2858550 
H     2.9394590    0.4837891    4.8165569 
H     5.2652370    3.4020474    4.1434084 
H     4.2436954    3.3072860    2.6759614 
H     3.9761987    4.6124621    3.8670362 
H     4.2729275    2.7512416    6.4371638 
H     2.5232318    2.4012867    6.5799879 
H     3.0883544    4.0555009    6.2118857 
H     1.8085483    1.1396526    2.6394640 
H     1.5099495    4.7142209    5.0411487 
H    -2.7906085    6.6721884    3.8360835 
H    -2.1737520    5.8520227    2.3807064 
H    -2.9402178    4.9014669    3.6890574 
H    -1.7829999    4.7048413    5.9744876 
H    -0.2063283    5.4872584    6.2691431 
H    -1.6653139    6.4884709    6.0430766 
H     0.9255297    6.8370700    4.3421147 
H     0.1368885    6.9150811    2.7413525 
H    -0.5705391    7.7872665    4.1357994 
H    -1.6437693    3.6909462    2.2848557 
H    -2.0206052    3.5471803   -0.0799146 
H    -5.0160427    5.1699852    1.4208698 
H    -6.4316202    4.2876082    0.7818233 
H    -6.0148637    5.8936783    0.1235385 
H    -4.8719150    3.4909361   -2.5953182 
H    -6.3698715    3.3387177   -1.6344963 
H    -5.8948022    4.9303226   -2.2811975 
H    -2.9649344    5.5806497   -0.0568546 
H    -4.0033509    6.2071602   -1.3594824 
H    -2.8790614    4.8558832   -1.6925389 
H    -6.0648554    2.0591762    0.1525241 
H    -2.7539871   -0.4548433    1.3157468 
H    -5.7956424    0.1078601    3.1777653 
H    -7.1590812   -0.8459598    2.5167152 
H    -6.9772569    0.8772803    2.0815842 
H    -5.8464584   -0.9710820   -1.0474586 
H    -7.1692581   -1.5187777    0.0295789 
H    -7.0421312    0.1990015   -0.4230631 
H    -4.1784672   -2.1127137    0.5679597 
H    -5.5824367   -2.5938294    1.5609081 
H    -4.2276462   -1.7230011    2.3159696 
H     1.7312538    3.1793401    0.6748266 
H     2.9206208    4.0850547   -1.3078637 
H     2.2191633    3.4198697   -3.6109122 
H    -2.7334475    2.2304360   -5.0115063 
H    -3.2513374    3.8113567   -4.3428643 
H    -1.3271645    4.3376755   -5.6986012 
H    -0.7846236    4.3938467   -4.0078495 
H     0.9186040    3.2489565   -5.4040996 
H    -0.2998926    2.1214407   -6.0526623 
H    -4.3023454    0.9372575   -3.5734908 
H    -4.2996100   -1.5234058   -3.0819647 
H    -2.3436216   -2.5687194   -1.9744753 
H     0.8245524   -1.2884165   -3.7286014 
H     1.7391704   -1.0523655   -7.1570922 
H     1.3302008   -2.0717148   -5.7567012 
H     0.8330307   -0.3517935   -5.7822758 
H     3.7860053   -2.6944493   -5.4226379 
H     4.1523516   -1.7539059   -6.9008410 
H     5.0463365   -1.4294670   -5.3894118 
H     4.3640318    1.0695524   -5.5740536 
H     3.4356279    0.7264433   -7.0563391 
H     2.6327565    1.5005935   -5.6547477 
H     4.8880275    0.1573133   -3.6376532 
H     2.7097154   -0.4344970    0.0457991 
H     4.0494859    1.4383758    0.6587092 
H     4.5981765   -0.2137697    1.0734929 
H     5.7638348    1.1297184    1.0549478 
H     6.5731012    2.1528414   -1.0010394 
H     4.9101833    2.5479772   -1.5347277 
H     6.0137400    1.6498489   -2.6137617 
H     6.5942186   -0.8069938   -2.0873310 
H     5.9597627   -1.5809439   -0.6095545 
H     7.2086014   -0.2999198   -0.4872464 
H    -1.6103886   -3.4681760    0.1731947 
H    -0.8005366   -7.9489207    0.3453246 
H    -2.1725752   -7.8862372    1.4839024 
H    -0.7846283   -6.7791985    1.6950247 
H    -3.8255947   -7.5358523   -0.4444544 
H    -3.5742469   -6.2042872   -1.6140938 
H    -2.4851919   -7.6195005   -1.6174291 
H    -2.4428038   -4.8201260    1.7417696 
H    -3.7752740   -5.9715305    1.4855657 
H    -3.5890315   -4.5819564    0.3867784 
H    -0.2903100   -7.1106703   -1.7241794 
H     1.7003232   -3.3866291   -2.5868046 
H     1.2691299   -4.5382776   -4.8686140 
H     1.8755329   -6.0983329   -5.5000129 
H     0.1982713   -5.9682449   -4.8855704 
H     3.8493577   -6.0547637   -3.8641179 
H     3.5730469   -5.7507582   -2.1223916 
H     3.3010177   -4.4545534   -3.3148852 
H     0.7162657   -7.9816885   -3.3908675 
H     2.0134672   -7.8814827   -2.1605051 
H     2.4204265   -8.0083664   -3.8943479 
