200
Energy =
C     0.5358414   -2.9483934    2.3203048 
C     0.7566462   -1.9419238    3.3069146 
C    -0.2898198   -1.0671113    3.6809948 
H     1.7785354   -1.7407620    3.6549258 
Pd    0.1410245   -0.9330829    1.4461018 
P    -0.3176659    1.3193429    1.0011036 
P     0.1392275   -1.5067119   -0.8103378 
H    -0.4768890   -3.3718888    2.2621632 
H    -1.3154581   -1.3841535    3.4328660 
C     3.5963164   -5.5144802    0.7127479 
C     3.9048420   -4.1834514    1.0411440 
C     2.9201238   -3.3428160    1.5692880 
C     1.6034519   -3.8118170    1.7770878 
C     1.3085943   -5.1500086    1.4412974 
C     2.2953579   -5.9943389    0.9204651 
H     4.3670806   -6.1713809    0.2962549 
H     4.9163870   -3.7988598    0.8786003 
H     3.1641072   -2.3005155    1.8036231 
H     0.2934513   -5.5278921    1.5903610 
H     2.0425153   -7.0302086    0.6745166 
C    -0.1225713    2.0633305    6.6182224 
C    -1.1732412    2.0069658    5.6894900 
C    -1.2193615    0.9801110    4.7427070 
C    -0.2037826   -0.0018604    4.6908583 
C     0.8425420    0.0587976    5.6384708 
C     0.8763196    1.0775088    6.5968828 
H    -0.0874052    2.8662175    7.3615716 
H    -1.9593537    2.7685552    5.7005590 
H    -2.0353238    0.9471156    4.0115372 
H     1.6153390   -0.7164427    5.6501081 
H     1.6805338    1.0952702    7.3394315 
C     4.1113571    1.4058670    4.0122951 
C     3.6730929    2.8811408    4.1519457 
C     4.5949338    3.7647765    3.2693252 
C     3.8344721    3.2970728    5.6337745 
C     2.2251271    3.0965476    3.6695038 
C     1.5877550    2.1847190    2.8096044 
C     1.5203710    4.2680888    4.0095094 
C     0.2255994    4.5556185    3.5323703 
C    -0.4795550    5.8595470    3.9549731 
C     0.3224112    7.0620590    3.3927246 
C    -1.9240430    5.9363928    3.4153782 
C    -0.5319357    5.9510288    5.5012376 
C    -0.3663107    3.6375306    2.6482020 
C     0.3172191    2.4683242    2.2777523 
C    -2.1118065    1.6070301    0.8154191 
C    -2.6199558    2.8044503    0.2822055 
C    -4.0072164    2.9867150    0.1513715 
C    -4.6148662    4.2835331   -0.4163854 
C    -3.5260680    5.2774321   -0.8732305 
C    -5.4760320    4.9586707    0.6813804 
C    -5.4995845    3.9358980   -1.6407586 
C    -4.8512513    1.9284945    0.5484293 
C    -4.3695378    0.7038638    1.0517405 
C    -2.9790394    0.5662785    1.1874258 
C    -5.3436916   -0.4303944    1.4235315 
C    -6.2215547   -0.7777728    0.1943780 
C    -4.5941038   -1.7098010    1.8553262 
C    -6.2435155    0.0385725    2.5949110 
C     0.4329111    1.9841211   -0.5533942 
C     1.5015844    2.9003044   -0.4811485 
C     2.0923848    3.3932021   -1.6502024 
C     1.6323574    2.9834390   -2.9051305 
C    -0.0525553    1.5626285   -1.8159689 
C     0.5591770    2.0839308   -2.9834998 
C    -1.2362723    0.6721066   -2.0223270 
C    -2.3610290    1.2534150   -2.6615371 
O    -2.3057146    2.5975982   -2.9234190 
C    -2.5244232    3.0642107   -4.2740778 
C    -1.2227466    3.6421341   -4.8355386 
C    -0.1833825    2.5890954   -5.2302783 
O     0.0631696    1.6323808   -4.1813641 
C    -3.5020662    0.4985883   -2.9687030 
C    -3.5135654   -0.8693271   -2.6819473 
C    -2.4109738   -1.4713421   -2.0653026 
C    -1.2737200   -0.7132393   -1.7172946 
C     1.6383273   -1.0294280   -1.7383752 
C     1.6372526   -1.0940849   -3.1466042 
C     2.7887873   -0.7553209   -3.8688425 
C     2.8425986   -0.8108188   -5.4073074 
C     3.9295619   -1.8261594   -5.8435572 
C     3.1960922    0.5966965   -5.9517321 
C     1.4902528   -1.2417074   -6.0131281 
C     3.9284532   -0.3428735   -3.1399452 
C     3.9546390   -0.2545502   -1.7381451 
C     2.7798844   -0.6109010   -1.0426102 
C     5.2001363    0.2074116   -0.9536739 
C     4.8512571    1.4766811   -0.1372709 
C     6.3872119    0.5369776   -1.8821535 
C     5.6368232   -0.9181574    0.0174909 
C    -0.0999860   -3.3036645   -1.0909612 
C     0.7507928   -4.0514801   -1.9217231 
C     0.4945825   -5.4117525   -2.1661513 
C     1.3660281   -6.2302682   -3.1401281 
C     0.5569981   -6.4237123   -4.4503450 
C     1.7139651   -7.6157902   -2.5435011 
C     2.6893336   -5.5063266   -3.4727340 
C    -0.6387774   -5.9937653   -1.5577046 
C    -1.4941337   -5.2781873   -0.6991504 
C    -1.1890607   -3.9255186   -0.4572200 
C    -2.7600905   -5.8917240   -0.0665477 
C    -3.9991741   -5.1925769   -0.6871304 
C    -2.8655225   -7.4083111   -0.3286266 
C    -2.7594976   -5.6602264    1.4657122 
H     5.1265986    1.2784795    4.4256801 
H     4.1463481    1.0803570    2.9582165 
H     3.4294685    0.7344781    4.5623847 
H     5.6516008    3.6402406    3.5679101 
H     4.5004850    3.4881728    2.2046200 
H     4.3323052    4.8325132    3.3689285 
H     4.8680826    3.1012827    5.9686357 
H     3.1452035    2.7283423    6.2795232 
H     3.6400338    4.3720615    5.7872756 
H     2.0799737    1.2495258    2.5233900 
H     2.0013497    4.9908775    4.6753076 
H    -0.1607710    8.0132706    3.6792401 
H     1.3556218    7.0764108    3.7808546 
H     0.3729298    7.0167820    2.2905647 
H    -1.9508086    5.9393642    2.3113719 
H    -2.5392073    5.0912599    3.7729043 
H    -2.4009562    6.8697589    3.7605127 
H    -1.1029619    5.1077653    5.9260549 
H     0.4764547    5.9381278    5.9488821 
H    -1.0237950    6.8903921    5.8097776 
H    -1.3640675    3.8221971    2.2474935 
H    -1.9230945    3.5723040   -0.0603225 
H    -2.8769773    4.8310135   -1.6458057 
H    -2.8914401    5.6034729   -0.0301883 
H    -4.0010421    6.1788064   -1.2973827 
H    -6.2947806    4.2998871    1.0195522 
H    -4.8579701    5.2126979    1.5608011 
H    -5.9280828    5.8898681    0.2955025 
H    -4.8971159    3.4252616   -2.4108060 
H    -5.9258724    4.8558105   -2.0789224 
H    -6.3397977    3.2743205   -1.3684730 
H    -5.9335775    2.0587672    0.4426109 
H    -2.5399559   -0.3663954    1.5533144 
H    -6.8205897    0.0870187   -0.1386830 
H    -6.9218242   -1.5947237    0.4439815 
H    -5.5918562   -1.1026179   -0.6516216 
H    -3.9868714   -1.5448595    2.7635276 
H    -5.3190823   -2.5100256    2.0825193 
H    -3.9287446   -2.0762949    1.0531999 
H    -5.6340896    0.2884830    3.4812893 
H    -6.9546753   -0.7583681    2.8766319 
H    -6.8284334    0.9335652    2.3210477 
H     1.8681860    3.2391424    0.4905295 
H     2.9201213    4.1063939   -1.5807650 
H     2.1010392    3.3592798   -3.8186947 
H    -2.9052615    2.2385101   -4.9032046 
H    -3.2987289    3.8488065   -4.2205051 
H    -1.4533913    4.2453113   -5.7337911 
H    -0.7998944    4.3334654   -4.0841879 
H     0.7578305    3.0724917   -5.5553135 
H    -0.5451408    1.9701930   -6.0675530 
H    -4.3661702    0.9862510   -3.4294084 
H    -4.3875480   -1.4761431   -2.9398227 
H    -2.4340239   -2.5457196   -1.8745179 
H     0.7217900   -1.3932930   -3.6619027 
H     3.9852236   -1.8768287   -6.9456658 
H     4.9279390   -1.5424760   -5.4679675 
H     3.6973010   -2.8361184   -5.4626810 
H     4.1824323    0.9395444   -5.5947360 
H     3.2231623    0.5852963   -7.0559550 
H     2.4398383    1.3308573   -5.6274440 
H     0.6832338   -0.5460899   -5.7248913 
H     1.5617806   -1.2495560   -7.1145905 
H     1.2054067   -2.2595836   -5.6914440 
H     4.8267711   -0.0740751   -3.7008033 
H     2.7367585   -0.5510241    0.0506544 
H     4.5910349    2.3127929   -0.8067046 
H     3.9903971    1.3083319    0.5322375 
H     5.7123649    1.7811048    0.4840452 
H     7.2501028    0.8660108   -1.2777152 
H     6.1418679    1.3528649   -2.5847308 
H     6.7057229   -0.3434273   -2.4675645 
H     5.8590120   -1.8481579   -0.5338532 
H     4.8502718   -1.1390260    0.7584014 
H     6.5439276   -0.6157530    0.5703795 
H     1.6119134   -3.5626598   -2.3791488 
H    -0.3845995   -6.9686983   -4.2620884 
H     1.1465558   -7.0008731   -5.1852827 
H     0.3016686   -5.4474844   -4.8996101 
H     2.3119958   -8.1965002   -3.2675127 
H     2.3055873   -7.5070723   -1.6191869 
H     0.8134902   -8.2089278   -2.3096164 
H     2.5178693   -4.5540993   -4.0045531 
H     3.3056812   -6.1436625   -4.1298780 
H     3.2707849   -5.2920376   -2.5584616 
H    -0.8572366   -7.0436858   -1.7653106 
H    -1.8200856   -3.3361639    0.2179884 
H    -4.0170223   -5.3286116   -1.7826408 
H    -4.9301055   -5.6164966   -0.2698628 
H    -3.9986160   -4.1083660   -0.4770579 
H    -3.7705686   -7.8085455    0.1598404 
H    -1.9945245   -7.9520343    0.0779936 
H    -2.9442199   -7.6335134   -1.4064346 
H    -2.7288811   -4.5864534    1.7223313 
H    -1.8947799   -6.1544775    1.9424357 
H    -3.6777863   -6.0791721    1.9135176 
