197
Energy =
C    -0.6472945   -3.2001214    1.6906529 
C    -0.5299582   -3.7228874    0.3610606 
C     0.7008111   -3.6341186   -0.3288452 
H    -1.4301210   -4.0292241   -0.1860273 
Pd   -0.0463808   -1.5789232    0.3137214 
P     0.3284227   -0.2906176   -1.5824185 
P    -0.0813715    0.2695725    1.7290687 
H     0.2363512   -3.2665192    2.3395537 
H     1.5989462   -3.4756716    0.2900569 
C    -4.3538292   -2.5799699    3.7983011 
C    -4.3689258   -2.7980093    2.4103013 
C    -3.1738514   -3.0063361    1.7152080 
C    -1.9313550   -3.0190080    2.3945380 
C    -1.9324077   -2.8067362    3.7924547 
C    -3.1298839   -2.5853238    4.4830896 
H    -5.2901332   -2.4106182    4.3398486 
H    -5.3193148   -2.7988033    1.8663615 
H    -3.2075287   -3.1462976    0.6295656 
H    -0.9819415   -2.8068567    4.3370157 
H    -3.1058900   -2.4198956    5.5647787 
C     1.6652447   -4.7762134   -4.3539050 
C     2.6421579   -4.2320193   -3.5059739 
C     2.3054434   -3.8690282   -2.1991350 
C     0.9877045   -4.0373066   -1.7108617 
C     0.0141609   -4.5782094   -2.5812585 
C     0.3514484   -4.9417299   -3.8880453 
H     1.9258706   -5.0764369   -5.3738308 
H     3.6679135   -4.0934061   -3.8629606 
H     3.0700914   -3.4453961   -1.5398952 
H    -1.0123989   -4.7236327   -2.2339994 
H    -0.4143977   -5.3584871   -4.5491828 
C    -1.2122535    5.1824103    3.6105213 
C    -2.6165179    4.8110278    3.0894832 
C    -3.0296614    5.8579185    2.0226975 
C    -3.6140510    4.8439074    4.2752094 
C    -2.6373362    3.4090681    2.4519996 
C    -1.4987085    2.5911782    2.3983929 
C    -3.8260171    2.9124193    1.8766353 
C    -3.9175347    1.6557574    1.2488114 
C    -5.2524352    1.1790506    0.6444285 
C    -5.9294531    2.3216440   -0.1514541 
C    -6.1779405    0.7380652    1.8083897 
C    -5.0440003   -0.0134878   -0.3148347 
C    -2.7616992    0.8530226    1.2274261 
C    -1.5683108    1.3197954    1.7982154 
C     0.2929775   -0.2348386    3.4519391 
C     1.3185853   -1.1821057    3.6471182 
C     1.6187110   -1.6644991    4.9304187 
C     2.7019109   -2.7320864    5.1769665 
C     2.0235139   -4.0020522    5.7535359 
C     3.4396479   -3.1200890    3.8776609 
C     3.7441860   -2.1897273    6.1874528 
C     0.8577031   -1.1636302    6.0091682 
C    -0.1802868   -0.2269309    5.8467547 
C    -0.4577635    0.2282370    4.5425959 
C    -0.9529170    0.3025375    7.0711709 
C    -1.4183035   -0.8728536    7.9662703 
C    -2.1971171    1.1185372    6.6565739 
C     0.0002989    1.2196407    7.8819953 
C     1.2890839    1.4187819    1.2441028 
C     2.4988888    1.4100440    1.9647277 
C     3.5673862    2.2294085    1.5806055 
C     3.4274812    3.0974276    0.4946788 
C     1.1378114    2.2818970    0.1233507 
C     2.2099501    3.1452033   -0.1997531 
C    -0.1094619    2.3707550   -0.6951283 
C    -0.8232298    3.5904565   -0.6994843 
O    -0.3391947    4.6589343    0.0319548 
C     0.3169537    5.6727533   -0.7589141 
C     1.8183408    5.4028615   -0.8257853 
O     2.0644023    4.0421030   -1.2415341 
C    -2.0258699    3.7345946   -1.4068804 
C    -2.5007381    2.6747978   -2.1839276 
C    -1.7776701    1.4777314   -2.2526964 
C    -0.5910156    1.3127021   -1.5128603 
C     2.0490156    0.1829378   -1.9507924 
C     2.3394988    1.1723242   -2.9073662 
C     3.6708824    1.5354918   -3.1659438 
C     4.0402535    2.6222000   -4.1929747 
C     4.8569779    3.7326568   -3.4827004 
C     2.7865271    3.2717068   -4.8163293 
C     4.8860485    1.9823222   -5.3230824 
C     4.6837543    0.8796604   -2.4343072 
C     4.4201267   -0.0892502   -1.4465285 
C     3.0761038   -0.4294037   -1.2165980 
C     5.5722601   -0.7626857   -0.6760416 
C     6.5889188    0.2996427   -0.1892070 
C     6.2800277   -1.7578062   -1.6319336 
C     5.0571022   -1.5321778    0.5608554 
C    -0.3649420   -1.1262029   -3.0583652 
C    -1.5986707   -1.7937318   -2.8977511 
C    -2.2441407   -2.3773662   -3.9973258 
C    -3.6184054   -3.0656671   -3.8752430 
C    -3.5824805   -4.4644139   -4.5400689 
C    -4.6709586   -2.1779937   -4.5898706 
C    -4.0476540   -3.2468714   -2.4036266 
C    -1.6075776   -2.2854386   -5.2562240 
C    -0.3671449   -1.6507271   -5.4419049 
C     0.2509133   -1.0733171   -4.3133476 
C     0.2900290   -1.4906678   -6.8272000 
C    -0.3605067   -2.4053534   -7.8863503 
C     0.1175204   -0.0111306   -7.2647043 
C     1.8010510   -1.8240129   -6.7568375 
H    -1.2345437    6.1957804    4.0473815 
H    -0.8717260    4.4881575    4.3997622 
H    -0.4701458    5.1777479    2.7933145 
H    -3.0167506    6.8725586    2.4595099 
H    -2.3255187    5.8291421    1.1738700 
H    -4.0475567    5.6719884    1.6381414 
H    -3.6154780    5.8430217    4.7463519 
H    -3.3356371    4.1000744    5.0427401 
H    -4.6450835    4.6242441    3.9476990 
H    -0.5429478    2.9392650    2.7967153 
H    -4.7192847    3.5437514    1.9098990 
H    -6.8608148    1.9553685   -0.6179515 
H    -6.2000836    3.1752522    0.4926394 
H    -5.2635166    2.6926597   -0.9496895 
H    -7.1476666    0.3794523    1.4179283 
H    -6.3743826    1.5789171    2.4964935 
H    -5.7111082   -0.0759187    2.3896797 
H    -4.3392287    0.2439066   -1.1254115 
H    -6.0064772   -0.2984683   -0.7741374 
H    -4.6551688   -0.8994094    0.2137115 
H    -2.7676041   -0.1344356    0.7576749 
H     1.8699941   -1.5497534    2.7762148 
H     1.5127098   -3.7921481    6.7088714 
H     2.7759037   -4.7894476    5.9375370 
H     1.2726732   -4.3999762    5.0474281 
H     3.9483402   -2.2539181    3.4194616 
H     2.7529425   -3.5554949    3.1287199 
H     4.2078555   -3.8804586    4.0995236 
H     4.5231697   -2.9493451    6.3768194 
H     4.2345882   -1.2812425    5.7956093 
H     3.2811549   -1.9357803    7.1562203 
H     1.0804583   -1.5285970    7.0167692 
H    -1.2688813    0.9365189    4.3679770 
H    -2.0780836   -1.5591962    7.4077854 
H    -1.9809296   -0.4865547    8.8340820 
H    -0.5699036   -1.4595258    8.3575717 
H    -1.9257401    2.0264490    6.0895045 
H    -2.8880439    0.5190162    6.0374303 
H    -2.7435384    1.4445203    7.5581277 
H     0.8926511    0.6670138    8.2245961 
H     0.3418800    2.0704811    7.2666020 
H    -0.5169912    1.6203702    8.7720563 
H     2.6055490    0.7690861    2.8432933 
H     4.5055543    2.1996183    2.1439356 
H     4.2435080    3.7540673    0.1791146 
H    -0.1219836    5.6904227   -1.7730031 
H     0.1243320    6.6429240   -0.2690036 
H     2.2906437    5.5785945    0.1578229 
H     2.2929457    6.0621783   -1.5730564 
H    -2.5665855    4.6833677   -1.3440217 
H    -3.4295136    2.7832418   -2.7529890 
H    -2.1354359    0.6694811   -2.8955849 
H     1.5159064    1.6756873   -3.4185626 
H     5.7977626    3.3424400   -3.0572218 
H     4.2619794    4.1736737   -2.6647844 
H     5.1200173    4.5302100   -4.2002844 
H     2.1779605    2.5371055   -5.3739199 
H     2.1530312    3.7383229   -4.0419685 
H     3.0914360    4.0569832   -5.5294479 
H     5.8157017    1.5334358   -4.9320560 
H     5.1675017    2.7454405   -6.0705305 
H     4.3148627    1.1887562   -5.8373677 
H     5.7251998    1.1530247   -2.6314413 
H     2.8018598   -1.1538694   -0.4453798 
H     7.3949368   -0.1846795    0.3895734 
H     7.0629212    0.8353229   -1.0288310 
H     6.0955799    1.0454444    0.4575987 
H     5.5738061   -2.5295198   -1.9870825 
H     7.1159986   -2.2636612   -1.1162495 
H     6.6861284   -1.2377893   -2.5170302 
H     5.9089268   -1.9502792    1.1241623 
H     4.4899702   -0.8683067    1.2370819 
H     4.4049700   -2.3794579    0.2833308 
H    -2.0449962   -1.8373387   -1.8983159 
H    -3.3230752   -4.4094151   -5.6106739 
H    -4.5730473   -4.9457896   -4.4625539 
H    -2.8460016   -5.1193941   -4.0425529 
H    -4.4223400   -2.0408206   -5.6564668 
H    -5.6721791   -2.6410450   -4.5287836 
H    -4.7214666   -1.1795027   -4.1203393 
H    -3.3206888   -3.8637634   -1.8447354 
H    -5.0225466   -3.7615566   -2.3596401 
H    -4.1586886   -2.2819779   -1.8813889 
H    -2.1063942   -2.7289450   -6.1212884 
H     1.2141689   -0.5681334   -4.4174417 
H     0.1650334   -2.2914524   -8.8499509 
H    -1.4203871   -2.1496957   -8.0594978 
H    -0.3024068   -3.4682386   -7.5910828 
H     0.6045390    0.6744563   -6.5485070 
H     0.5720179    0.1513783   -8.2585360 
H    -0.9511200    0.2600646   -7.3229646 
H     2.2567949   -1.7068530   -7.7555950 
H     1.9613905   -2.8616384   -6.4209709 
H     2.3439787   -1.1564533   -6.0655087 
