197
Energy =
C    -1.7148889    2.6297320    1.9157234 
C    -2.8035039    1.6974031    1.8635299 
C    -2.6906777    0.4448553    2.5098048 
H    -3.6425102    1.8742322    1.1795043 
Pd   -1.0294696    0.7474946    0.9828708 
P    -0.9853900   -1.3043672   -0.1031693 
P     1.1473372    1.2840515    0.3572177 
H    -1.1091153    2.6482317    2.8316477 
H    -1.9261994    0.3692420    3.2999508 
C    -1.3225933    6.1452581   -0.5446418 
C    -2.2718633    5.1640913   -0.8767705 
C    -2.4148360    4.0222999   -0.0826937 
C    -1.6222307    3.8398178    1.0765500 
C    -0.6783453    4.8404962    1.4041420 
C    -0.5283672    5.9757999    0.5988760 
H    -1.2072672    7.0352399   -1.1717406 
H    -2.9002212    5.2882664   -1.7649910 
H    -3.1419926    3.2583345   -0.3765188 
H    -0.0508621    4.7172726    2.2935411 
H     0.2122244    6.7349207    0.8697118 
C    -5.3680509   -2.9118373    2.4971035 
C    -4.1620878   -2.9537990    3.2128040 
C    -3.3124161   -1.8443419    3.2097573 
C    -3.6430924   -0.6721935    2.4890243 
C    -4.8608031   -0.6473553    1.7713579 
C    -5.7116383   -1.7566076    1.7764039 
H    -6.0408947   -3.7752549    2.5039394 
H    -3.8846778   -3.8507828    3.7762396 
H    -2.3719989   -1.8810126    3.7686746 
H    -5.1484397    0.2448169    1.2083951 
H    -6.6482478   -1.7224878    1.2114201 
C     0.8801735   -1.9925935    4.8534740 
C     0.9386504   -3.4650095    4.3892799 
C    -0.1100255   -4.2871773    5.1827985 
C     2.3574421   -4.0068905    4.6930406 
C     0.6224193   -3.6009379    2.8872502 
C     0.0450841   -2.5515712    2.1522891 
C     0.8807103   -4.8051534    2.2038608 
C     0.6167902   -4.9883417    0.8299406 
C     0.9841045   -6.3178098    0.1447117 
C     0.1651671   -7.4647972    0.7893409 
C     0.6860115   -6.2831530   -1.3692068 
C     2.5011751   -6.5788893    0.3329906 
C     0.0369868   -3.9192978    0.1282198 
C    -0.2606847   -2.7159421    0.7925756 
C    -2.6800323   -1.7593387   -0.6300616 
C    -3.4854904   -0.7243915   -1.1482396 
C    -4.7585987   -1.0017481   -1.6721756 
C    -5.6538257    0.0945323   -2.2830041 
C    -5.6702364   -0.0923579   -3.8225030 
C    -5.1318098    1.5113832   -1.9625696 
C    -7.0959660   -0.0192160   -1.7285698 
C    -5.1934942   -2.3431263   -1.6497684 
C    -4.4332257   -3.3893068   -1.0930942 
C    -3.1623793   -3.0742620   -0.5753395 
C    -4.9493781   -4.8414267   -1.1236948 
C    -6.4542220   -4.9010382   -0.7647069 
C    -4.1784985   -5.7417610   -0.1316007 
C    -4.7447463   -5.3868114   -2.5620305 
C    -0.0375042   -1.2241459   -1.6896829 
C    -0.7193671   -1.1679507   -2.9204346 
C    -0.0116962   -1.0745808   -4.1250848 
C     1.3855125   -1.0769221   -4.1170247 
C     1.3833184   -1.1995563   -1.6625088 
C     2.0707525   -1.1746565   -2.8969847 
C     2.1882136   -1.2563246   -0.4045598 
C     3.0213187   -2.3798848   -0.1979431 
O     3.0727030   -3.3687671   -1.1624763 
C     4.2575950   -3.3341124   -1.9872380 
C     4.0010462   -2.5120086   -3.2482643 
O     3.4524127   -1.2222948   -2.9020447 
C     3.7802569   -2.5273291    0.9722292 
C     3.7758540   -1.5087917    1.9287798 
C     3.0112258   -0.3544140    1.7196023 
C     2.2098151   -0.2195253    0.5695006 
C     1.4823987    1.8575502   -1.3391184 
C     0.4079714    2.2419883   -2.1551844 
C     0.6398733    2.6653277   -3.4772965 
C    -0.5082391    3.1069037   -4.4053990 
C    -1.8769411    2.6212287   -3.8797803 
C    -0.5100191    4.6567944   -4.4657953 
C    -0.3104257    2.5327713   -5.8296301 
C     1.9744538    2.7052552   -3.9235493 
C     3.0726367    2.3186774   -3.1264153 
C     2.8054723    1.8847976   -1.8192201 
C     4.4992003    2.3631497   -3.7055357 
C     5.5448907    1.8521741   -2.6921716 
C     4.8456706    3.8248635   -4.0870576 
C     4.5630061    1.4598325   -4.9642817 
C     1.8495082    2.5403987    1.4932724 
C     1.5798351    2.3968643    2.8693969 
C     2.0299637    3.3508212    3.7951098 
C     1.7195893    3.2483088    5.3007151 
C     3.0453231    3.2436726    6.1032801 
C     0.8598110    4.4708918    5.7146747 
C     0.9374959    1.9626312    5.6449095 
C     2.7596860    4.4507428    3.2939550 
C     3.0358987    4.6296197    1.9252624 
C     2.5611413    3.6550693    1.0252275 
C     3.8635940    5.8399797    1.4494201 
C     3.2932354    7.1502391    2.0476208 
C     3.8625559    5.9681911   -0.0897431 
C     5.3246315    5.6471925    1.9342214 
H     1.1691903   -1.9229106    5.9161573 
H     1.5701281   -1.3605607    4.2670187 
H    -0.1355773   -1.5674471    4.7653216 
H     0.0822628   -4.2170772    6.2685281 
H    -1.1310009   -3.9136191    4.9870546 
H    -0.0788905   -5.3527782    4.8962391 
H     2.5904017   -3.8788096    5.7647307 
H     3.1171919   -3.4651383    4.1039945 
H     2.4488529   -5.0817817    4.4627287 
H    -0.1514133   -1.5809069    2.6148684 
H     1.3268769   -5.6355179    2.7605268 
H    -0.9183935   -7.2916092    0.6625836 
H     0.4189867   -8.4297825    0.3154684 
H     0.3708101   -7.5552568    1.8701622 
H     0.9788434   -7.2437532   -1.8270918 
H     1.2532554   -5.4783674   -1.8686452 
H    -0.3899102   -6.1339323   -1.5721644 
H     2.7724145   -6.6698986    1.3990510 
H     2.7910872   -7.5200481   -0.1675059 
H     3.0838324   -5.7500819   -0.1041381 
H    -0.1580257   -3.9969313   -0.9437482 
H    -3.0937291    0.2986402   -1.1438493 
H    -6.3132297    0.6697748   -4.2982391 
H    -6.0566706   -1.0884328   -4.0997594 
H    -4.6512499    0.0060682   -4.2373848 
H    -5.0845808    1.6845413   -0.8721412 
H    -5.8130296    2.2664796   -2.3903828 
H    -4.1305930    1.6916238   -2.3872019 
H    -7.7307175    0.7750957   -2.1588250 
H    -7.1060964    0.0928100   -0.6298410 
H    -7.5630843   -0.9868180   -1.9772893 
H    -6.1734198   -2.5793647   -2.0745129 
H    -2.5384423   -3.8529968   -0.1336546 
H    -6.7973441   -5.9502418   -0.7567846 
H    -6.6407513   -4.4690313    0.2330802 
H    -7.0791042   -4.3591913   -1.4948325 
H    -4.2297659   -5.3427968    0.8967265 
H    -4.6170654   -6.7543841   -0.1309902 
H    -3.1143038   -5.8468666   -0.4068911 
H    -5.3002351   -4.7807966   -3.2992687 
H    -5.1022972   -6.4298076   -2.6337350 
H    -3.6759794   -5.3662901   -2.8397818 
H    -1.8113007   -1.2075561   -2.9408236 
H    -0.5560701   -1.0161812   -5.0729753 
H     1.9619041   -1.0147934   -5.0446397 
H     4.4993178   -4.3777368   -2.2531653 
H     5.0972605   -2.9087569   -1.4079946 
H     4.9479832   -2.3293393   -3.7851260 
H     3.3032594   -3.0400542   -3.9233339 
H     4.3749098   -3.4355065    1.1072311 
H     4.3822364   -1.6026894    2.8353495 
H     3.0517392    0.4540515    2.4536876 
H    -0.6051889    2.1914349   -1.7469718 
H    -1.8935796    1.5230029   -3.7630902 
H    -2.6738436    2.9031766   -4.5897497 
H    -2.1252152    3.0768663   -2.9070666 
H    -1.3259729    5.0182688   -5.1178138 
H     0.4452657    5.0369822   -4.8680700 
H    -0.6501980    5.0849494   -3.4581425 
H    -0.2456470    1.4311991   -5.8037001 
H    -1.1631140    2.8158470   -6.4715073 
H     0.6037679    2.9180996   -6.3118375 
H     2.1713264    3.0418609   -4.9460864 
H     3.6136351    1.5405777   -1.1696941 
H     6.5501035    1.8871085   -3.1467199 
H     5.5710064    2.4765420   -1.7809173 
H     5.3378840    0.8083650   -2.3984696 
H     4.8006436    4.4826940   -3.2010477 
H     5.8659418    3.8789407   -4.5068765 
H     4.1484491    4.2255455   -4.8433077 
H     4.3088594    0.4204105   -4.6957606 
H     5.5807792    1.4761742   -5.3934765 
H     3.8634582    1.7985755   -5.7481070 
H     0.9975153    1.5331996    3.2053018 
H     3.6308748    4.1628429    5.9310507 
H     2.8362913    3.1768734    7.1857422 
H     3.6732912    2.3812802    5.8181361 
H     1.3888885    5.4214165    5.5300185 
H     0.6164697    4.4224322    6.7909855 
H    -0.0878122    4.4937053    5.1470491 
H     1.5035373    1.0530770    5.3776841 
H     0.7402762    1.9270604    6.7299518 
H    -0.0408674    1.9265502    5.1315488 
H     3.1194217    5.2032590    4.0029433 
H     2.7321420    3.7652095   -0.0465889 
H     3.3262970    7.1528916    3.1504083 
H     2.2449140    7.3033914    1.7380559 
H     3.8843368    8.0141968    1.6968183 
H     2.8374825    6.0705234   -0.4883725 
H     4.4340269    6.8641142   -0.3871611 
H     4.3366907    5.0977959   -0.5767636 
H     5.7565486    4.7209160    1.5163081 
H     5.9512517    6.4982938    1.6127444 
H     5.3769326    5.5810498    3.0351369 
