197
Energy =
C    -0.6476089   -3.1724200    1.7587417 
C    -0.6120844   -3.7289354    0.4422041 
C     0.5631296   -3.6921371   -0.3407169 
H    -1.5519397   -4.0179435   -0.0450060 
Pd   -0.0485192   -1.5970374    0.3110940 
P     0.3703758   -0.3123481   -1.5815939 
P    -0.0659322    0.2677416    1.7070603 
H     0.2659701   -3.2357353    2.3646829 
H     1.5178763   -3.5229210    0.1840460 
C    -4.2577000   -2.5197758    4.0200236 
C    -4.3306881   -2.7332298    2.6331242 
C    -3.1660042   -2.9460814    1.8902551 
C    -1.8969331   -2.9673083    2.5177676 
C    -1.8395119   -2.7586166    3.9144292 
C    -3.0071161   -2.5342045    4.6540508 
H    -5.1701569   -2.3473026    4.5999340 
H    -5.3021709   -2.7287838    2.1279175 
H    -3.2441518   -3.0863225    0.8065273 
H    -0.8680904   -2.7672452    4.4202369 
H    -2.9381453   -2.3739095    5.7345088 
C     0.9942256   -5.1129619   -4.3745635 
C     1.9420996   -4.2409164   -3.8169355 
C     1.7949064   -3.7941721   -2.5013400 
C     0.6894653   -4.1970982   -1.7174954 
C    -0.2497422   -5.0862990   -2.2862624 
C    -0.0946901   -5.5414691   -3.6002345 
H     1.1097278   -5.4677939   -5.4038663 
H     2.7968792   -3.9034759   -4.4112240 
H     2.5306708   -3.1026273   -2.0797458 
H    -1.0893454   -5.4525153   -1.6871146 
H    -0.8204778   -6.2457569   -4.0191509 
C    -1.3426876    5.1588874    3.5565621 
C    -2.7313517    4.7502757    3.0216981 
C    -3.1606412    5.7844881    1.9489880 
C    -3.7417449    4.7585767    4.1969398 
C    -2.7091095    3.3468932    2.3874319 
C    -1.5505241    2.5559752    2.3543251 
C    -3.8763314    2.8209881    1.7949482 
C    -3.9279111    1.5611140    1.1687590 
C    -5.2411220    1.0565551    0.5396430 
C    -5.8979708    2.1710329   -0.3114943 
C    -6.2013256    0.6488036    1.6873721 
C    -4.9984748   -0.1639799   -0.3753101 
C    -2.7537842    0.7856924    1.1697145 
C    -1.5805864    1.2807864    1.7590938 
C     0.3264413   -0.2080794    3.4341336 
C    -0.3977091    0.2844911    4.5295602 
C    -0.0757586   -0.1213851    5.8397629 
C    -0.8119588    0.4464488    7.0695952 
C    -1.2660528   -0.7015691    8.0051107 
C     0.1703058    1.3731814    7.8334980 
C    -2.0576224    1.2656931    6.6665844 
C     0.9751156   -1.0436968    6.0026896 
C     1.7068959   -1.5772452    4.9195313 
C     1.3657743   -1.1395999    3.6302630 
C     2.8113372   -2.6215550    5.1711688 
C     3.8993847   -2.0083463    6.0888484 
C     3.4825434   -3.0835413    3.8600143 
C     2.1807361   -3.8599276    5.8596979 
C     1.2747307    1.4589996    1.2368500 
C     2.4626221    1.5074732    1.9910467 
C     3.4971184    2.3846482    1.6432244 
C     3.3466860    3.2454937    0.5539130 
C     1.1120321    2.3177584    0.1145535 
C     2.1516581    3.2293449   -0.1798947 
C    -0.1222882    2.3622657   -0.7250189 
C    -0.8682855    3.5636648   -0.7489542 
O    -0.4285599    4.6470883   -0.0116559 
C     0.1969733    5.6871413   -0.7928085 
C     1.7077706    5.4690058   -0.8402469 
O     1.9985796    4.1109746   -1.2336550 
C    -2.0601435    3.6743893   -1.4793354 
C    -2.4939603    2.5984194   -2.2577626 
C    -1.7437506    1.4176228   -2.3002815 
C    -0.5662496    1.2847875   -1.5383383 
C     2.1026986    0.1620183   -1.8990179 
C     2.4179374    1.1881725   -2.8124723 
C     3.7551907    1.5296706   -3.0568462 
C     4.1502282    2.6548562   -4.0317883 
C     2.9136941    3.3352208   -4.6564445 
C     5.0186918    2.0596103   -5.1691779 
C     4.9549854    3.7316243   -3.2586200 
C     4.7591269    0.8103701   -2.3659319 
C     4.4742960   -0.2042918   -1.4366179 
C     3.1175451   -0.5103357   -1.2062903 
C     5.5645355   -0.9753376   -0.6659363 
C     5.3885907   -2.4955698   -0.9153687 
C     5.4129257   -0.6839955    0.8487493 
C     6.9864431   -0.5695517   -1.1050087 
C    -0.2804096   -1.1270806   -3.0877323 
C    -1.4914995   -1.8350395   -2.9439332 
C    -2.1553198   -2.3547010   -4.0637830 
C    -3.5424500   -3.0170955   -3.9482929 
C    -4.5992183   -1.9826180   -4.4196007 
C    -3.8661982   -3.4255696   -2.4938546 
C    -3.6278637   -4.2819957   -4.8358032 
C    -1.5436889   -2.1799861   -5.3261998 
C    -0.3161069   -1.5160008   -5.4953974 
C     0.3087582   -0.9831291   -4.3487722 
C     0.3517902   -1.3237812   -6.8716675 
C     1.7577685   -1.9765387   -6.8549824 
C    -0.4677187   -1.9601326   -8.0130920 
C     0.4931752    0.1951047   -7.1535388 
H    -1.3952729    6.1727341    3.9897009 
H    -0.9933002    4.4760964    4.3519938 
H    -0.5917332    5.1701039    2.7475250 
H    -3.1763751    6.8000409    2.3835433 
H    -2.4488820    5.7709726    1.1061658 
H    -4.1703567    5.5731210    1.5561132 
H    -3.7747548    5.7580452    4.6662342 
H    -3.4518869    4.0234426    4.9685885 
H    -4.7629495    4.5109710    3.8586929 
H    -0.6092385    2.9297724    2.7636299 
H    -4.7848775    3.4311575    1.8115607 
H    -6.8195145    1.7898829   -0.7856332 
H    -6.1799301    3.0474973    0.2960808 
H    -5.2133736    2.5122410   -1.1067310 
H    -7.1532056    0.2646265    1.2779641 
H    -6.4307141    1.5121710    2.3362190 
H    -5.7464243   -0.1365102    2.3152481 
H    -4.2691470    0.0706985   -1.1709490 
H    -5.9442247   -0.4672092   -0.8568544 
H    -4.6237201   -1.0315710    0.1925663 
H    -2.7281017   -0.2014943    0.7001239 
H    -1.2206266    0.9789103    4.3549302 
H    -1.9594827   -1.3849520    7.4853326 
H    -1.7887316   -0.2872072    8.8848721 
H    -0.4148778   -1.2974016    8.3760885 
H     0.5075313    2.2030200    7.1877674 
H     1.0638935    0.8198323    8.1716522 
H    -0.3221664    1.8038108    8.7236175 
H    -2.5738918    1.6249917    7.5732392 
H    -1.7912387    2.1528973    6.0654465 
H    -2.7735315    0.6573909    6.0856096 
H     1.2330025   -1.3693004    7.0155575 
H     1.8991329   -1.5258803    2.7561279 
H     4.3596947   -1.1242636    5.6135432 
H     4.6946996   -2.7488617    6.2862215 
H     3.4834510   -1.6942844    7.0614413 
H     2.7577152   -3.5564056    3.1721125 
H     3.9706815   -2.2467198    3.3302399 
H     4.2596349   -3.8338222    4.0853220 
H     1.7224697   -3.5988866    6.8288994 
H     1.3964514   -4.3059109    5.2221460 
H     2.9518432   -4.6281831    6.0469162 
H     2.5788027    0.8669928    2.8684559 
H     4.4173780    2.4027393    2.2356140 
H     4.1369708    3.9447529    0.2654788 
H    -0.2296009    5.6899897   -1.8122313 
H    -0.0379627    6.6484584   -0.3040256 
H     2.1632340    5.6730029    0.1458038 
H     2.1697699    6.1320862   -1.5918579 
H    -2.6252139    4.6098395   -1.4324561 
H    -3.4127331    2.6803362   -2.8470426 
H    -2.0739534    0.5960590   -2.9406046 
H     1.6059467    1.7322666   -3.3001139 
H     2.2678693    3.7788576   -3.8792457 
H     2.3126967    2.6247450   -5.2517793 
H     3.2390465    4.1426164   -5.3350257 
H     5.9420360    1.5963613   -4.7802261 
H     4.4581533    1.2873804   -5.7258425 
H     5.3130005    2.8522325   -5.8799987 
H     4.3357153    4.1570885   -2.4506549 
H     5.2527559    4.5472843   -3.9414843 
H     5.8746255    3.3154360   -2.8120557 
H     5.8028886    1.0708763   -2.5577658 
H     2.8360581   -1.2680444   -0.4662082 
H     6.1834267   -3.0619408   -0.3985588 
H     4.4198252   -2.8636923   -0.5342393 
H     5.4428443   -2.7287256   -1.9931497 
H     5.5715509    0.3874250    1.0566585 
H     6.1522668   -1.2658238    1.4278790 
H     4.4055277   -0.9493601    1.2141630 
H     7.7316712   -1.1495485   -0.5338870 
H     7.1545674   -0.7708294   -2.1776407 
H     7.1826469    0.5005622   -0.9163945 
H    -1.9164541   -1.9463910   -1.9405787 
H    -4.5694566   -1.0780178   -3.7860534 
H    -5.6152910   -2.4129406   -4.3606534 
H    -4.4153448   -1.6750577   -5.4636957 
H    -3.9292980   -2.5527298   -1.8218750 
H    -4.8430581   -3.9374081   -2.4584718 
H    -3.1044603   -4.1191150   -2.0966407 
H    -3.5000778   -4.0484066   -5.9062258 
H    -4.6171084   -4.7580510   -4.7196709 
H    -2.8542736   -5.0146971   -4.5505592 
H    -2.0522360   -2.5783576   -6.2065157 
H     1.2592735   -0.4503393   -4.4409057 
H     2.2608786   -1.8212002   -7.8258984 
H     1.6810994   -3.0624575   -6.6754033 
H     2.4006892   -1.5444338   -6.0680655 
H    -1.4716294   -1.5081522   -8.0978361 
H     0.0504713   -1.8022914   -8.9745162 
H    -0.5860245   -3.0491026   -7.8719896 
H     0.9631731    0.3583754   -8.1397375 
H     1.1214663    0.6935930   -6.3947931 
H    -0.4948476    0.6878615   -7.1550420 
