200
Energy =
C     3.4464628    0.4026109    1.3991129 
C     3.3125384    1.7276770    0.8661095 
C     2.3397109    2.6039575    1.3985822 
H     3.8371126    2.0011160   -0.0578039 
Pd    1.4004712    0.6793259    0.6160402 
P    -0.4441525    1.5100004   -0.5308638 
P     0.4914456   -1.4501790    0.8663029 
H     3.2571300    0.2710044    2.4728263 
H     1.9605061    2.3584431    2.4036988 
C     5.7880232   -2.7428048   -0.3853653 
C     5.3927893   -1.6404147   -1.1619518 
C     4.6358318   -0.6114757   -0.5933240 
C     4.2604569   -0.6554538    0.7712102 
C     4.6606512   -1.7728427    1.5386718 
C     5.4186212   -2.8011567    0.9664178 
H     6.3803951   -3.5477556   -0.8323993 
H     5.6753417   -1.5852139   -2.2186085 
H     4.3200593    0.2287283   -1.2208617 
H     4.3677044   -1.8338899    2.5920322 
H     5.7262771   -3.6509575    1.5837736 
C     1.2027588    6.5505375    0.1480882 
C     0.5790857    5.9330475    1.2425860 
C     0.9719744    4.6503874    1.6344319 
C     1.9900168    3.9540165    0.9406247 
C     2.6045994    4.5884448   -0.1632538 
C     2.2130554    5.8724773   -0.5533140 
H     0.9053020    7.5591753   -0.1557140 
H    -0.2118495    6.4524687    1.7935758 
H     0.4828055    4.1713811    2.4882829 
H     3.3970508    4.0789877   -0.7184077 
H     2.6966222    6.3480249   -1.4121475 
C     1.2928308   -3.0628548   -5.3365375 
C     2.1285389   -2.8200541   -4.0554833 
C     2.6133367   -1.3546170   -4.0718454 
C     3.3622763   -3.7597483   -4.0505273 
C     1.2860576   -3.1212759   -2.8012285 
C     1.2664005   -2.2604387   -1.6889413 
C     0.5249938   -4.3036956   -2.7236301 
C    -0.2765469   -4.6390546   -1.6127318 
C    -1.0858613   -5.9494114   -1.6103151 
C    -0.0977267   -7.1442905   -1.6171593 
C    -1.9925260   -6.0612469   -0.3663617 
C    -1.9830600   -6.0037402   -2.8725708 
C    -0.2970155   -3.7443551   -0.5320336 
C     0.4839345   -2.5745091   -0.5673998 
C     1.2962622   -2.3664987    2.2374443 
C     1.5845611   -1.6555956    3.4230740 
C     2.2468504   -2.2772172    4.4900840 
C     2.6134315   -1.5244407    5.7835880 
C     2.1133637   -0.0642648    5.7665906 
C     4.1568219   -1.5119520    5.9346740 
C     1.9747721   -2.2446636    6.9984408 
C     2.6044658   -3.6391911    4.3399441 
C     2.3241643   -4.3751397    3.1775594 
C     1.6738612   -3.7081830    2.1167737 
C     2.6471637   -5.8753536    3.0299898 
C     3.4713251   -6.4136788    4.2175165 
C     1.3042523   -6.6513745    2.9630395 
C     3.4438872   -6.1260418    1.7247445 
C    -1.2860811   -1.2895294    1.3593781 
C    -1.6725059   -1.4643127    2.7031400 
C    -3.0069121   -1.2820210    3.0880603 
C    -3.9755713   -0.9323181    2.1412909 
C    -2.2564245   -0.9373882    0.3855759 
C    -3.6026316   -0.7833611    0.7968243 
C    -1.9714881   -0.7995632   -1.0765346 
C    -2.5519302   -1.7594491   -1.9404421 
O    -3.2729828   -2.7601932   -1.3378333 
C    -4.5693440   -3.0903154   -1.8727898 
C    -5.5598592   -1.9259691   -1.7797649 
C    -5.6604742   -1.2854344   -0.3922580 
O    -4.5145561   -0.4332205   -0.1647415 
C    -2.3507908   -1.7037907   -3.3278908 
C    -1.5950023   -0.6591768   -3.8708116 
C    -1.0381820    0.3219847   -3.0413234 
C    -1.2194251    0.2576280   -1.6452601 
C    -1.8075473    2.1294576    0.5081288 
C    -3.0572855    2.4617396   -0.0431168 
C    -4.0920907    2.9267181    0.7850745 
C    -5.4836926    3.2905234    0.2347112 
C    -6.5555404    2.4559428    0.9816063 
C    -5.6005206    2.9873122   -1.2740657 
C    -5.7399049    4.8019186    0.4626921 
C    -3.8296727    3.0375056    2.1664500 
C    -2.6008717    2.6732959    2.7513447 
C    -1.5884987    2.2157208    1.8925649 
C    -2.3871645    2.7985002    4.2721772 
C    -2.3054439    4.3040098    4.6346570 
C    -1.0854001    2.1009154    4.7248089 
C    -3.5691524    2.1460840    5.0319559 
C     0.0812803    2.8421267   -1.6740489 
C     1.2845371    2.6351797   -2.3790854 
C     1.7135849    3.5550541   -3.3503436 
C     3.0073563    3.3486849   -4.1631463 
C     2.6143821    2.9039207   -5.5960719 
C     3.9140388    2.2665470   -3.5384211 
C     3.8180443    4.6669227   -4.2309783 
C     0.8963621    4.6794780   -3.5871645 
C    -0.2866066    4.9364086   -2.8678013 
C    -0.6804676    3.9981482   -1.8949367 
C    -1.1541555    6.1677657   -3.1953244 
C    -1.9337138    5.8638492   -4.5022943 
C    -2.1660132    6.4695820   -2.0669193 
C    -0.2738642    7.4237265   -3.4076138 
H     1.8896574   -2.8095768   -6.2304690 
H     0.3843934   -2.4357887   -5.3352880 
H     0.9815539   -4.1163777   -5.4370449 
H     3.1692905   -1.1523791   -5.0037473 
H     1.7634251   -0.6509503   -4.0201474 
H     3.2917587   -1.1420114   -3.2291747 
H     3.9975199   -3.5694499   -4.9346787 
H     3.0539420   -4.8197031   -4.0721700 
H     3.9690547   -3.6002568   -3.1420329 
H     1.8450018   -1.3328690   -1.6801220 
H     0.5488557   -4.9936056   -3.5731427 
H    -0.6505218   -8.1008083   -1.6171114 
H     0.5527095   -7.1276136   -2.5089943 
H     0.5506828   -7.1194821   -0.7231495 
H    -1.4036617   -6.0954381    0.5674148 
H    -2.6918703   -5.2097565   -0.3048754 
H    -2.5826924   -6.9925057   -0.4182511 
H    -2.5867486   -6.9286332   -2.8738195 
H    -2.6685189   -5.1395182   -2.8919518 
H    -1.3895030   -5.9910438   -3.8027380 
H    -0.9296695   -3.9338177    0.3380694 
H     1.2923070   -0.6031417    3.4900174 
H     1.0149499   -0.0073908    5.6708333 
H     2.5642732    0.5156007    4.9405891 
H     2.3932655    0.4354517    6.7097100 
H     4.5690434   -2.5339938    5.9906381 
H     4.6308818   -1.0000896    5.0780443 
H     4.4475207   -0.9791021    6.8574704 
H     0.8746397   -2.2680860    6.9059219 
H     2.2324816   -1.7168871    7.9337746 
H     2.3309967   -3.2848734    7.0910040 
H     3.1207923   -4.1322461    5.1672458 
H     1.4642328   -4.2436571    1.1876765 
H     4.4339430   -5.8815038    4.3181805 
H     3.6934499   -7.4832867    4.0611890 
H     2.9231259   -6.3264112    5.1720308 
H     0.6965275   -6.3286979    2.0992866 
H     1.4929437   -7.7350664    2.8605907 
H     0.7092274   -6.4879851    3.8785399 
H     2.8886658   -5.7974396    0.8292753 
H     3.6519218   -7.2047633    1.6126145 
H     4.4073306   -5.5895128    1.7407593 
H    -0.9323420   -1.7599663    3.4512234 
H    -3.2915019   -1.4162613    4.1367189 
H    -5.0176803   -0.7707788    2.4327581 
H    -4.4876617   -3.4490323   -2.9167334 
H    -4.8989307   -3.9404568   -1.2533728 
H    -5.2896114   -1.1356001   -2.5034680 
H    -6.5562015   -2.3052313   -2.0755009 
H    -6.5550652   -0.6415957   -0.3355727 
H    -5.7277714   -2.0492586    0.4046357 
H    -2.7792610   -2.4743811   -3.9746333 
H    -1.4429006   -0.6040283   -4.9536281 
H    -0.4713275    1.1453487   -3.4832247 
H    -3.2203199    2.3210942   -1.1138253 
H    -7.5599890    2.6688268    0.5745021 
H    -6.3466978    1.3791585    0.8635347 
H    -6.5769871    2.6839387    2.0610621 
H    -5.4126764    1.9195260   -1.4823982 
H    -6.6175002    3.2334644   -1.6252318 
H    -4.8906092    3.5893870   -1.8691946 
H    -4.9851254    5.4105452   -0.0662503 
H    -6.7388297    5.0836561    0.0843630 
H    -5.6974778    5.0638821    1.5342885 
H    -4.6284629    3.4049172    2.8187704 
H    -0.6207694    1.8912305    2.2842060 
H    -1.4630959    4.7893697    4.1101351 
H    -3.2312788    4.8337224    4.3502045 
H    -2.1564872    4.4335188    5.7216941 
H    -0.9898960    2.1615014    5.8225102 
H    -0.1863771    2.5767878    4.2937570 
H    -1.0824448    1.0344511    4.4380957 
H    -3.6674275    1.0815907    4.7585162 
H    -4.5278465    2.6456360    4.8123248 
H    -3.4034327    2.2129865    6.1217179 
H     1.8744699    1.7387376   -2.1597205 
H     2.0536728    1.9527044   -5.5685137 
H     3.5160026    2.7569924   -6.2175603 
H     1.9784328    3.6609642   -6.0870954 
H     4.8425321    2.1711432   -4.1266904 
H     4.1993788    2.5296455   -2.5037612 
H     3.4301084    1.2766599   -3.5246947 
H     3.2630973    5.4729480   -4.7394857 
H     4.7544944    4.5059283   -4.7931328 
H     4.0830940    5.0198922   -3.2184650 
H     1.2025751    5.3924006   -4.3579417 
H    -1.5865139    4.1594397   -1.3086077 
H    -2.5792186    4.9767231   -4.3755171 
H    -2.5727133    6.7217456   -4.7790919 
H    -1.2421401    5.6652243   -5.3398499 
H    -2.7230914    7.3921333   -2.3039908 
H    -1.6568181    6.6133222   -1.0977152 
H    -2.9084696    5.6607001   -1.9486482 
H    -0.9130249    8.3013092   -3.6075850 
H     0.4085083    7.3141952   -4.2676019 
H     0.3349997    7.6365201   -2.5127916 
