206
Energy =
C     0.8932229    0.8818891   -3.8776535 
C     0.4354051   -0.4415532   -4.0695728 
C    -0.9344315   -0.7964544   -3.8587234 
H     1.1729492   -1.2391999   -4.2294813 
Pd   -0.0692219    0.0284029   -1.9868402 
P    -1.4629454   -0.8675236   -0.3619591 
P     1.4619731    0.7679205   -0.3681086 
H     0.1441079    1.6865775   -3.9470679 
H    -1.6991368   -0.0415427   -4.0941859 
C     4.9512351    2.2697214   -4.1887012 
C     4.7001017    0.9145968   -3.9184989 
C     3.3867660    0.4498669   -3.8176775 
C     2.2924490    1.3272102   -3.9843253 
C     2.5612646    2.6883568   -4.2466542 
C     3.8759315    3.1559542   -4.3486418 
H     5.9813577    2.6314972   -4.2694413 
H     5.5327619    0.2172788   -3.7780225 
H     3.2118110   -0.6017241   -3.5885829 
H     1.7250977    3.3831632   -4.3714093 
H     4.0599394    4.2168332   -4.5456767 
C    -2.3246126   -4.8739479   -3.7762219 
C    -3.1776055   -3.8395376   -4.1872559 
C    -2.7130704   -2.5194834   -4.2302547 
C    -1.3915954   -2.2010348   -3.8517237 
C    -0.5462528   -3.2548114   -3.4315050 
C    -1.0041997   -4.5754244   -3.4000085 
H    -2.6844634   -5.9073581   -3.7466474 
H    -4.2117207   -4.0582897   -4.4723183 
H    -3.3826702   -1.7183297   -4.5565761 
H     0.4727097   -3.0334775   -3.0965849 
H    -0.3309292   -5.3740921   -3.0699714 
C    -4.3486649    4.7494493    1.7344622 
C    -3.3107531    3.9990654    0.8745039 
C    -3.7422139    4.1100358   -0.6110758 
C    -1.9308654    4.6725359    1.0778050 
C    -3.1992476    2.5102132    1.2539385 
C    -2.3599539    1.6602670    0.5000715 
C    -3.9186530    1.9409589    2.3157171 
C    -3.8348502    0.5700180    2.6557411 
C    -4.6891427    0.0122074    3.8095208 
C    -4.4170127    0.8231849    5.1010643 
C    -6.1856244    0.1392323    3.4216762 
C    -4.3783974   -1.4738583    4.0865918 
C    -3.0041923   -0.2459916    1.8799406 
C    -2.2747424    0.2986737    0.8044567 
C    -2.9874713   -1.7530480   -0.8839085 
C    -3.8320195   -0.9799778   -1.7077359 
C    -5.1292617   -1.4074898   -2.0113736 
C    -6.1046872   -0.5532917   -2.8432328 
C    -6.6302257   -1.3730405   -4.0487596 
C    -5.4382888    0.7322236   -3.3782246 
C    -7.2938644   -0.1450989   -1.9341866 
C    -5.5467737   -2.6562321   -1.4956519 
C    -4.7274098   -3.4532819   -0.6814408 
C    -3.4373973   -2.9717411   -0.3659190 
C    -5.1888317   -4.8001197   -0.0905486 
C    -4.1946246   -5.9119026   -0.5124501 
C    -5.2145140   -4.6864701    1.4562439 
C    -6.5982587   -5.1980249   -0.5753024 
C    -0.3878877   -1.9910424    0.6069905 
C    -0.2704813   -3.3390900    0.2041930 
C     0.5825904   -4.1978062    0.9017898 
C     1.3561916   -3.7282005    1.9692882 
C     0.4175540   -1.4812368    1.6540446 
C     1.2931989   -2.3716664    2.3334713 
C     0.3854398   -0.0630396    2.1236065 
C    -0.1063108    0.1770606    3.4333302 
O    -0.5843704   -0.9186814    4.0917952 
C    -0.6944797   -0.8754490    5.5273681 
C     0.6741768   -0.8971136    6.2269023 
C     1.2374160   -2.3011222    6.5132435 
C     1.5341033   -3.2044678    5.3022387 
C     2.6046107   -2.6672139    4.3380587 
O     2.0519979   -1.8133046    3.3191641 
C    -0.1180757    1.4781817    3.9658864 
C     0.3615343    2.5437780    3.1981004 
C     0.8520176    2.3319728    1.9055166 
C     0.8658753    1.0320215    1.3627501 
C     2.2221385    2.3824632   -0.8093283 
C     1.3547922    3.3789265   -1.3018678 
C     1.8289722    4.6742524   -1.5737883 
C     0.9255605    5.7979764   -2.1205389 
C     1.5869269    6.4604107   -3.3563455 
C     0.7379358    6.8634214   -1.0092052 
C    -0.4596327    5.2691916   -2.5467846 
C     3.1906737    4.9339792   -1.3218350 
C     4.0903807    3.9518298   -0.8691344 
C     3.5849298    2.6604911   -0.6251238 
C     5.5626274    4.3171694   -0.5955162 
C     5.6073184    5.1942318    0.6837219 
C     6.4299515    3.0610462   -0.3676305 
C     6.1598146    5.1127077   -1.7824413 
C     2.8070581   -0.4701752   -0.1705033 
C     2.9015866   -1.5623335   -1.0476297 
C     3.9712124   -2.4776280   -0.9501098 
C     4.0626692   -3.6877623   -1.9061330 
C     5.4111534   -4.4284144   -1.7790542 
C     2.9227665   -4.6794187   -1.5659947 
C     3.9077500   -3.2283524   -3.3760537 
C     4.9235019   -2.2524140    0.0590431 
C     4.8348588   -1.1884411    0.9834665 
C     3.7517257   -0.3052259    0.8631248 
C     5.9348617   -1.0038760    2.0472714 
C     5.5596662    0.0870321    3.0727555 
C     7.2465126   -0.5915797    1.3285250 
C     6.1735888   -2.3308417    2.8101482 
H    -5.3588064    4.3172230    1.6247230 
H    -4.0787296    4.7373966    2.8050521 
H    -4.3993062    5.8052888    1.4166721 
H    -4.7307203    3.6422349   -0.7645569 
H    -3.0258520    3.6129625   -1.2873635 
H    -3.8095260    5.1700730   -0.9141913 
H    -1.9695753    5.7306877    0.7635994 
H    -1.6347529    4.6354346    2.1400459 
H    -1.1397811    4.1689990    0.4971533 
H    -1.7791922    2.0525719   -0.3429164 
H    -4.5842313    2.5783380    2.9025713 
H    -5.0168815    0.4232914    5.9377566 
H    -4.6777716    1.8887034    4.9820659 
H    -3.3507448    0.7653280    5.3807791 
H    -6.4720953    1.1914809    3.2503901 
H    -6.8270147   -0.2606574    4.2276274 
H    -6.3958665   -0.4260259    2.4964443 
H    -4.6363318   -2.1112155    3.2234286 
H    -3.3101790   -1.6257344    4.3179722 
H    -4.9720230   -1.8252313    4.9482007 
H    -2.9225118   -1.3154554    2.0867030 
H    -3.4614665   -0.0202355   -2.0806356 
H    -7.3394980   -0.7684126   -4.6410905 
H    -7.1586296   -2.2860546   -3.7253821 
H    -5.8022656   -1.6768889   -4.7133089 
H    -6.1659544    1.3075518   -3.9759909 
H    -5.0890786    1.3850752   -2.5585612 
H    -4.5765642    0.5048257   -4.0320457 
H    -6.9371903    0.4337010   -1.0638781 
H    -7.8353955   -1.0293332   -1.5559986 
H    -8.0121053    0.4776270   -2.4971847 
H    -6.5549943   -3.0036861   -1.7334280 
H    -2.8006134   -3.5455353    0.3118735 
H    -4.5043900   -6.8827021   -0.0863153 
H    -3.1693811   -5.7009239   -0.1615546 
H    -4.1620933   -6.0083671   -1.6110607 
H    -4.2167510   -4.4484278    1.8647408 
H    -5.9131375   -3.8941971    1.7779829 
H    -5.5434903   -5.6406803    1.9051800 
H    -6.8789273   -6.1729250   -0.1407619 
H    -7.3617540   -4.4635277   -0.2639735 
H    -6.6377261   -5.2971854   -1.6745552 
H    -0.8452611   -3.7123091   -0.6471273 
H     0.6517531   -5.2500941    0.6088700 
H     2.0154479   -4.4174636    2.5014670 
H    -1.2903776   -1.7677283    5.7802333 
H    -1.2877689    0.0058594    5.8306999 
H     1.3841533   -0.3004947    5.6238682 
H     0.5728562   -0.3672839    7.1920055 
H     2.1687176   -2.1860661    7.1006059 
H     0.5288590   -2.8342871    7.1760080 
H     1.8771910   -4.1840208    5.6832047 
H     0.6131753   -3.4061910    4.7237515 
H     3.3324265   -2.0263232    4.8618498 
H     3.1736579   -3.4899897    3.8688800 
H    -0.4995650    1.6650409    4.9720755 
H     0.3559618    3.5551837    3.6171791 
H     1.2317288    3.1755011    1.3245460 
H     0.3053766    3.1216375   -1.4788047 
H     0.9376032    7.2642700   -3.7454983 
H     2.5634689    6.9118477   -3.1132141 
H     1.7432926    5.7267532   -4.1662279 
H     0.0861909    7.6815247   -1.3650966 
H     1.7051511    7.3039033   -0.7108826 
H     0.2766528    6.4167843   -0.1121990 
H    -1.0619137    6.0930522   -2.9664302 
H    -1.0214301    4.8525739   -1.6959808 
H    -0.3745623    4.4868691   -3.3228356 
H     3.5702663    5.9439473   -1.5041989 
H     4.2508749    1.8654951   -0.2870752 
H     5.1918783    4.6467149    1.5482359 
H     6.6486408    5.4782618    0.9199687 
H     5.0207410    6.1205250    0.5537536 
H     6.1180361    2.5091554    0.5356921 
H     7.4839842    3.3548393   -0.2252558 
H     6.3791320    2.3715464   -1.2288796 
H     7.2156363    5.3611210   -1.5760911 
H     5.6262579    6.0624456   -1.9569542 
H     6.1191428    4.5214991   -2.7122664 
H     2.1166511   -1.6969737   -1.8008909 
H     5.5511096   -4.8589857   -0.7723340 
H     6.2641552   -3.7610354   -1.9945036 
H     5.4444782   -5.2625622   -2.5008653 
H     1.9350359   -4.1951796   -1.6423554 
H     2.9435663   -5.5415663   -2.2570487 
H     3.0294609   -5.0552129   -0.5346117 
H     2.9200185   -2.7710878   -3.5601509 
H     3.9956058   -4.0933540   -4.0562124 
H     4.6862733   -2.4957632   -3.6500786 
H     5.7703648   -2.9369353    0.1442556 
H     3.6204788    0.5146262    1.5729568 
H     6.3436962    0.1586631    3.8461162 
H     5.4707876    1.0813975    2.6007789 
H     4.6018291   -0.1430105    3.5715947 
H     7.1093805    0.3482628    0.7673454 
H     7.5735902   -1.3682236    0.6154356 
H     8.0567721   -0.4415436    2.0644860 
H     5.2522260   -2.6675830    3.3124618 
H     6.5110768   -3.1388942    2.1390189 
H     6.9546775   -2.1907583    3.5781088 
