200
Energy =
C     3.4077330    0.4095832    1.5374117 
C     3.3072263    1.7011917    0.9267256 
C     2.3278511    2.6171523    1.3753318 
H     3.8752726    1.9181625    0.0135734 
Pd    1.3871815    0.6693269    0.6555007 
P    -0.4525940    1.5129438   -0.4992686 
P     0.4604385   -1.4486666    0.8752341 
H     3.1470546    0.3419944    2.6027648 
H     1.9177861    2.4349078    2.3814389 
C     5.9804242   -2.7672825    0.1768308 
C     5.5757488   -1.7655181   -0.7214963 
C     4.7325567   -0.7333257   -0.2977693 
C     4.2842460   -0.6693794    1.0430067 
C     4.6954673   -1.6871339    1.9322819 
C     5.5334036   -2.7232665    1.5053300 
H     6.6382059   -3.5753600   -0.1595343 
H     5.9168802   -1.7939403   -1.7613918 
H     4.4088961    0.0246159   -1.0196908 
H     4.3494960   -1.6632977    2.9694166 
H     5.8395840   -3.4961557    2.2180491 
C     1.3410476    6.5268001   -0.0988095 
C     0.6827870    5.9901135    1.0175828 
C     1.0236561    4.7161817    1.4809362 
C     2.0246833    3.9495324    0.8387519 
C     2.6725253    4.5017007   -0.2900875 
C     2.3324891    5.7763377   -0.7520658 
H     1.0847982    7.5286285   -0.4576359 
H    -0.0944292    6.5659959    1.5306132 
H     0.5070335    4.3002373    2.3515806 
H     3.4495461    3.9337261   -0.8092596 
H     2.8412584    6.1872799   -1.6295601 
C     1.4547360   -1.3469437   -4.7060734 
C     2.0288140   -2.6464835   -4.0866749 
C     3.4923869   -2.4013869   -3.6446931 
C     2.0235810   -3.7484958   -5.1660685 
C     1.1775343   -3.0258336   -2.8581278 
C     1.1819916   -2.1931902   -1.7187299 
C     0.3664711   -4.1724392   -2.8202799 
C    -0.4441282   -4.5117427   -1.7118987 
C    -1.3045571   -5.7883170   -1.7516386 
C    -2.1544237   -5.9480749   -0.4734175 
C    -2.2617147   -5.7188558   -2.9686338 
C    -0.3723038   -7.0197330   -1.8854485 
C    -0.4256611   -3.6568364   -0.6027800 
C     0.3924070   -2.5090722   -0.6062123 
C     1.2900877   -2.4435898    2.1737302 
C     1.5561820   -1.8285002    3.4168821 
C     2.2031219   -2.5323538    4.4417427 
C     2.4902311   -1.9037211    5.8194650 
C     2.0042155   -0.4410906    5.9016163 
C     4.0163948   -1.9268816    6.0909296 
C     1.7559463   -2.7257837    6.9100130 
C     2.6040820   -3.8635696    4.1754817 
C     2.3761212   -4.4936757    2.9416169 
C     1.7071624   -3.7583249    1.9399774 
C     2.7740240   -5.9549936    2.6559414 
C     3.6960194   -6.5292393    3.7514710 
C     1.4755255   -6.8033522    2.5956735 
C     3.5088078   -6.0539761    1.2944825 
C    -1.2966782   -1.2618261    1.4392515 
C    -1.6254674   -1.4426949    2.7983345 
C    -2.9292482   -1.2145829    3.2548821 
C    -3.9297039   -0.8117765    2.3648138 
C    -2.3038580   -0.8674671    0.5196657 
C    -3.6207702   -0.6643787    1.0045475 
C    -2.1072608   -0.7281228   -0.9563635 
C    -2.8031992   -1.6391934   -1.7869050 
O    -3.5073627   -2.6271870   -1.1449048 
C    -4.8475306   -2.9166796   -1.5876222 
C    -5.7882731   -1.7174283   -1.4388911 
C    -5.7695664   -1.0668024   -0.0528285 
O    -4.5700456   -0.2731767    0.0966974 
C    -2.7375570   -1.5447480   -3.1852914 
C    -1.9907357   -0.5169370   -3.7692345 
C    -1.3024544    0.4046756   -2.9707897 
C    -1.3543705    0.3046343   -1.5663454 
C    -1.7488050    2.2172449    0.5729551 
C    -3.0011836    2.5957400    0.0594905 
C    -3.9914946    3.1026024    0.9174503 
C    -5.3833463    3.5198177    0.4070429 
C    -5.5712551    3.1801918   -1.0868700 
C    -5.5534705    5.0482814    0.5993256 
C    -6.4683802    2.7632834    1.2153557 
C    -3.6830690    3.2071145    2.2896737 
C    -2.4523485    2.7952851    2.8382139 
C    -1.4860507    2.2968554    1.9503586 
C    -2.1904857    2.9067796    4.3525617 
C    -3.3594389    2.2641886    5.1406410 
C    -2.0761518    4.4075192    4.7251028 
C    -0.8856800    2.1878212    4.7607239 
C     0.1153536    2.7743427   -1.6987293 
C    -0.6046103    3.9421037   -1.9845084 
C    -0.1847384    4.8009356   -3.0187403 
C    -1.0065387    6.0417385   -3.4203125 
C    -0.0807102    7.2537660   -3.6876268 
C    -2.0189856    6.4374878   -2.3219507 
C    -1.7826478    5.6959971   -4.7188820 
C     0.9801497    4.4532126   -3.7297455 
C     1.7546196    3.3129403   -3.4312964 
C     1.2994799    2.4738378   -2.4018229 
C     3.0385960    3.0162855   -4.2310587 
C     3.8414154    1.8456650   -3.6237453 
C     2.6422407    2.6468421   -5.6839697 
C     3.9523941    4.2680096   -4.2426152 
H     2.0821480   -1.0143869   -5.5526254 
H     1.4122654   -0.5295517   -3.9659118 
H     0.4286419   -1.5113943   -5.0752092 
H     4.1160385   -2.1404135   -4.5183330 
H     3.5654432   -1.5736184   -2.9208720 
H     3.9181870   -3.3010447   -3.1678661 
H     2.6608209   -3.4405502   -6.0130293 
H     1.0097037   -3.9295954   -5.5642086 
H     2.4203687   -4.7020610   -4.7754584 
H     1.7954593   -1.2857065   -1.6888603 
H     0.3524886   -4.8349167   -3.6892077 
H    -2.7754540   -6.8572600   -0.5511532 
H    -1.5220323   -6.0546891    0.4259496 
H    -2.8237980   -5.0829071   -0.3280675 
H    -2.9150309   -4.8335435   -2.8892470 
H    -1.7109602   -5.6544038   -3.9227805 
H    -2.8979685   -6.6208504   -3.0079969 
H    -0.9674589   -7.9499615   -1.9135844 
H     0.2316497   -6.9765554   -2.8084034 
H     0.3210130   -7.0787465   -1.0274765 
H    -1.0510295   -3.8583541    0.2698016 
H     1.2538350   -0.7879453    3.5668148 
H     0.9136078   -0.3603266    5.7489432 
H     2.5075449    0.2008812    5.1558061 
H     2.2320179   -0.0288518    6.8995115 
H     4.4198639   -2.9536167    6.0745039 
H     4.5613600   -1.3341656    5.3348518 
H     4.2338602   -1.4957770    7.0842140 
H     0.6658061   -2.7242351    6.7336617 
H     1.9462342   -2.2933349    7.9084539 
H     2.0962193   -3.7753720    6.9263560 
H     3.1168856   -4.4171591    4.9659446 
H     1.5150413   -4.2178347    0.9675762 
H     4.6216581   -5.9348879    3.8529675 
H     3.9844097   -7.5622157    3.4916438 
H     3.1959875   -6.5652558    4.7351205 
H     0.7997789   -6.4418998    1.8001789 
H     1.7170657   -7.8606828    2.3850377 
H     0.9295399   -6.7564179    3.5541148 
H     2.8665616   -5.7420143    0.4529330 
H     3.8136007   -7.0989468    1.1087308 
H     4.4112765   -5.4199678    1.2825092 
H    -0.8646424   -1.7807092    3.5056191 
H    -3.1635865   -1.3534355    4.3153314 
H    -4.9474394   -0.6101640    2.7120212 
H    -4.8489821   -3.2878382   -2.6304239 
H    -5.1626255   -3.7494903   -0.9379104 
H    -5.5408892   -0.9418528   -2.1863948 
H    -6.8155320   -2.0623068   -1.6617195 
H    -6.6258477   -0.3790047    0.0554542 
H    -5.8248586   -1.8240411    0.7511626 
H    -3.2670567   -2.2698060   -3.8094000 
H    -1.9449050   -0.4305258   -4.8596227 
H    -0.7339081    1.2093250   -3.4430682 
H    -3.2037820    2.4559572   -1.0045159 
H    -6.5896096    3.4609219   -1.4065715 
H    -4.8604591    3.7337878   -1.7261909 
H    -5.4369116    2.0997644   -1.2705898 
H    -4.7895738    5.6017224    0.0247619 
H    -6.5507178    5.3713193    0.2506462 
H    -5.4553307    5.3360828    1.6606696 
H    -6.4451709    3.0275590    2.2864169 
H    -7.4741856    3.0113433    0.8323220 
H    -6.3152992    1.6741767    1.1288378 
H    -4.4467736    3.6064977    2.9649345 
H    -0.5215723    1.9329392    2.3141412 
H    -4.3175684    2.7757836    4.9476388 
H    -3.4769179    1.2023620    4.8645151 
H    -3.1644698    2.3237307    6.2260422 
H    -1.8939553    4.5247245    5.8084262 
H    -3.0015799    4.9539231    4.4728883 
H    -1.2418358    4.8852465    4.1811034 
H     0.0049786    2.6527139    4.3009915 
H    -0.9077982    1.1219943    4.4720438 
H    -0.7537539    2.2431690    5.8548963 
H    -1.4981499    4.1732853   -1.4021980 
H     0.5189874    7.4981977   -2.7948293 
H    -0.6860637    8.1387444   -3.9504770 
H     0.6128034    7.0712172   -4.5260055 
H    -2.5436943    7.3626167   -2.6160524 
H    -2.7882972    5.6601890   -2.1676789 
H    -1.5146422    6.6194486   -1.3566555 
H    -1.0899520    5.4330230   -5.5375135 
H    -2.3908051    6.5584793   -5.0461949 
H    -2.4577364    4.8375459   -4.5544488 
H     1.3069018    5.1051857   -4.5454582 
H     1.8537003    1.5688407   -2.1313196 
H     3.2746918    0.8997025   -3.6387376 
H     4.7650551    1.6851717   -4.2055979 
H     4.1369197    2.0582599   -2.5803532 
H     3.5426736    2.4331043   -6.2873800 
H     2.0931935    3.4707634   -6.1718563 
H     1.9956774    1.7518589   -5.6962991 
H     4.8744321    4.0600918   -4.8134034 
H     4.2426986    4.5538838   -3.2161022 
H     3.4594306    5.1362311   -4.7114053 
