206
Energy =
C     0.2806821    1.4240069   -3.6003772 
C    -0.8520837    0.5738961   -3.8077198 
C    -2.0636322    0.8308824   -3.1253985 
H    -0.7336984   -0.3638423   -4.3646533 
Pd   -0.3407665    0.5094794   -1.6721125 
P    -1.4229148   -0.8019032   -0.0761707 
P     1.3733994    1.1445061   -0.2317589 
H     0.0753455    2.4814557   -3.3856410 
H    -2.1951996    1.8514777   -2.7321577 
C     4.2041671    0.7094886   -5.2302037 
C     3.3197463   -0.3662382   -5.0448250 
C     2.0486046   -0.1509074   -4.5032282 
C     1.6236195    1.1506667   -4.1463707 
C     2.5282316    2.2203478   -4.3290617 
C     3.8019113    2.0029297   -4.8668786 
H     5.1984433    0.5381569   -5.6555339 
H     3.6261512   -1.3803281   -5.3210663 
H     1.3820891   -1.0055274   -4.3456368 
H     2.2250400    3.2324128   -4.0457536 
H     4.4784507    2.8513852   -5.0085759 
C    -5.7299409   -1.4042337   -3.1454698 
C    -4.6327618   -1.8758428   -3.8850903 
C    -3.4295213   -1.1646996   -3.8944131 
C    -3.2986742    0.0372762   -3.1617414 
C    -4.4115563    0.4953014   -2.4179317 
C    -5.6137334   -0.2179220   -2.4060254 
H    -6.6738844   -1.9585318   -3.1487482 
H    -4.7154486   -2.8058000   -4.4563247 
H    -2.5878453   -1.5450895   -4.4799538 
H    -4.3245465    1.4199092   -1.8390791 
H    -6.4616950    0.1552118   -1.8222891 
C    -4.6915873   -1.9031136    4.1376573 
C    -5.2775151   -0.5413288    3.7056164 
C    -6.6864718   -0.7705707    3.0966890 
C    -5.4066111    0.3530537    4.9631435 
C    -4.4036447    0.1425842    2.6351932 
C    -3.3925451   -0.5505170    1.9448083 
C    -4.6410147    1.4852853    2.2767020 
C    -3.9078583    2.1600180    1.2794456 
C    -4.2003172    3.6388054    0.9607002 
C    -3.1854596    4.2176099   -0.0492788 
C    -5.6245290    3.7487754    0.3579119 
C    -4.1206816    4.4782180    2.2608599 
C    -2.9323393    1.4256262    0.5879573 
C    -2.6901995    0.0774204    0.9014527 
C    -2.1880544   -2.2357980   -0.9296438 
C    -3.4266730   -2.7844201   -0.5682754 
C    -3.8881768   -3.9670296   -1.1783093 
C    -5.1951229   -4.6532980   -0.7343980 
C    -6.0175885   -5.1198609   -1.9605808 
C    -6.0771735   -3.7107635    0.1130087 
C    -4.8137034   -5.8885520    0.1242128 
C    -3.0805277   -4.5532157   -2.1708121 
C    -1.8582173   -3.9960379   -2.5976764 
C    -1.4195405   -2.8277242   -1.9534176 
C    -1.0522280   -4.6769768   -3.7212902 
C    -0.5033927   -6.0261658   -3.1894460 
C    -1.9686888   -4.9340526   -4.9445759 
C     0.1336076   -3.8081078   -4.1903116 
C    -0.3218301   -1.5951656    1.1727667 
C    -0.1053449   -2.9873631    1.1616318 
C     0.7385191   -3.5660844    2.1153031 
C     1.3655733   -2.7805802    3.0875851 
C     0.3124999   -0.7790640    2.1385045 
C     1.1488239   -1.3911945    3.1081969 
C     0.0817010    0.6922289    2.2641386 
C    -0.6343069    1.1262858    3.4125437 
O    -1.1100904    0.1328691    4.2158848 
C    -1.4830007    0.4551965    5.5679856 
C    -0.2655767    0.7575164    6.4565356 
C     0.3811921   -0.4764475    7.1109517 
C     0.9618296   -1.5503763    6.1729140 
C     2.1359742   -1.0903265    5.2916667 
O     1.7126238   -0.5494873    4.0242310 
C    -0.8317232    2.4958248    3.6611456 
C    -0.3031671    3.4391435    2.7748872 
C     0.4030290    3.0363065    1.6375179 
C     0.5921054    1.6647412    1.3678358 
C     2.2561844    2.6370292   -0.8375073 
C     1.4733281    3.6951050   -1.3420691 
C     2.0718487    4.8711285   -1.8218154 
C     1.2476593    6.0551169   -2.3649960 
C     1.6660343    6.3473425   -3.8288202 
C     1.5215492    7.3029650   -1.4863652 
C    -0.2681709    5.7649927   -2.3411782 
C     3.4806185    4.9428775   -1.7925741 
C     4.2921526    3.9009052   -1.3055747 
C     3.6557707    2.7369535   -0.8321349 
C     5.8262265    4.0578079   -1.2908057 
C     6.3438889    4.1629967   -2.7477675 
C     6.2013377    5.3445065   -0.5112560 
C     6.5213299    2.8602654   -0.6085268 
C     2.6537845   -0.0869700    0.1837252 
C     3.5395096    0.1458101    1.2563682 
C     4.5768487   -0.7589401    1.5213007 
C     5.6065632   -0.5319134    2.6446911 
C     5.6387688   -1.7680076    3.5782893 
C     7.0069919   -0.3360837    2.0074854 
C     5.2667324    0.7145117    3.4886872 
C     4.6776592   -1.9069662    0.7019456 
C     3.7928326   -2.1787414   -0.3540126 
C     2.7745337   -1.2358497   -0.6089689 
C     3.8899620   -3.4545876   -1.2139590 
C     5.1383264   -4.2959433   -0.8771346 
C     3.9536680   -3.0620840   -2.7100360 
C     2.6301258   -4.3206678   -0.9602133 
H    -4.6807856   -2.6296975    3.3064670 
H    -3.6585821   -1.7961471    4.5130925 
H    -5.3083889   -2.3363768    4.9436060 
H    -6.6254545   -1.4040276    2.1948033 
H    -7.1564829    0.1861572    2.8089134 
H    -7.3464084   -1.2702043    3.8285408 
H    -6.0297113   -0.1511889    5.7224702 
H    -4.4178899    0.5544493    5.4083549 
H    -5.8831734    1.3220198    4.7371703 
H    -3.1351242   -1.5764967    2.2167995 
H    -5.4280732    2.0336858    2.8043077 
H    -3.3988225    5.2861867   -0.2238019 
H    -3.2410197    3.7090257   -1.0287434 
H    -2.1507663    4.1318644    0.3269585 
H    -5.7037228    3.1624444   -0.5748879 
H    -5.8642347    4.8015011    0.1241784 
H    -6.3893019    3.3737217    1.0599433 
H    -4.8645119    4.1507299    3.0071741 
H    -3.1192036    4.3936818    2.7159149 
H    -4.3159748    5.5427416    2.0402977 
H    -2.3251002    1.8906880   -0.1934666 
H    -4.0280355   -2.2883414    0.1945805 
H    -6.9585607   -5.5902424   -1.6256978 
H    -5.4756136   -5.8664389   -2.5655592 
H    -6.2707860   -4.2686411   -2.6143709 
H    -7.0279837   -4.2123095    0.3621067 
H    -5.5904186   -3.4408800    1.0660794 
H    -6.3115080   -2.7786924   -0.4305781 
H    -4.2304468   -5.5836314    1.0111128 
H    -4.2033052   -6.6031085   -0.4554048 
H    -5.7224028   -6.4137563    0.4695130 
H    -3.4235806   -5.4790444   -2.6424642 
H    -0.4709488   -2.3575863   -2.2342992 
H     0.0778394   -6.5429361   -3.9741923 
H    -1.3225607   -6.6961143   -2.8755357 
H     0.1560932   -5.8632339   -2.3194187 
H    -2.8124035   -5.6003160   -4.6979601 
H    -2.3844357   -3.9870473   -5.3320563 
H    -1.3931462   -5.4129012   -5.7562069 
H     0.6681492   -4.3154463   -5.0115326 
H    -0.2122226   -2.8303545   -4.5713016 
H     0.8636352   -3.6289318   -3.3838051 
H    -0.6041057   -3.6180424    0.4220508 
H     0.9021867   -4.6486230    2.1097557 
H     2.0128929   -3.2528889    3.8300351 
H    -2.0253340   -0.4376742    5.9198567 
H    -2.2025578    1.2938910    5.5667028 
H     0.4744575    1.3195123    5.8563196 
H    -0.5899819    1.4424735    7.2615920 
H     1.1852992   -0.1281409    7.7872750 
H    -0.3708588   -0.9606826    7.7634851 
H     1.3161063   -2.3906455    6.7978705 
H     0.1753702   -1.9688025    5.5173774 
H     2.6966629   -0.2659695    5.7620845 
H     2.8535437   -1.9138613    5.1244844 
H    -1.3835695    2.8305112    4.5419823 
H    -0.4382567    4.5065663    2.9783922 
H     0.8243726    3.7926913    0.9722941 
H     0.3848393    3.5861564   -1.3536421 
H     1.0949665    7.2055976   -4.2249857 
H     2.7389518    6.5927254   -3.9070534 
H     1.4677986    5.4759794   -4.4779270 
H     0.9409204    8.1668735   -1.8561028 
H     2.5889391    7.5827822   -1.4989009 
H     1.2320872    7.1141270   -0.4374809 
H    -0.8193490    6.6325952   -2.7425300 
H    -0.6364216    5.5808763   -1.3167717 
H    -0.5279893    4.8909291   -2.9658966 
H     3.9644558    5.8508802   -2.1674032 
H     4.2479422    1.9002775   -0.4585193 
H     5.8781049    5.0077691   -3.2848554 
H     7.4375336    4.3181292   -2.7550067 
H     6.1223652    3.2369946   -3.3051955 
H     5.7854543    6.2499135   -0.9856409 
H     7.2991841    5.4602031   -0.4765251 
H     5.8249917    5.2989527    0.5258129 
H     7.6136643    3.0174074   -0.6048439 
H     6.3229747    1.9112270   -1.1368769 
H     6.1949408    2.7477357    0.4405901 
H     3.3989319    1.0351523    1.8751156 
H     5.9474904   -2.6812775    3.0416726 
H     4.6429241   -1.9520962    4.0150884 
H     6.3555012   -1.6059992    4.4027799 
H     7.0116272    0.5354648    1.3306930 
H     7.7652084   -0.1690229    2.7935124 
H     7.3131862   -1.2214806    1.4237489 
H     5.3048444    1.6379644    2.8838942 
H     6.0000868    0.8235873    4.3062617 
H     4.2602672    0.6365757    3.9346089 
H     5.4832327   -2.6158441    0.9076792 
H     2.0598839   -1.3889038   -1.4255790 
H     5.1713244   -5.1864095   -1.5285227 
H     6.0697316   -3.7257039   -1.0403014 
H     5.1251094   -4.6510394    0.1684092 
H     4.8317847   -2.4257567   -2.9149690 
H     3.0574988   -2.5018281   -3.0211201 
H     4.0224865   -3.9666607   -3.3404867 
H     2.5889696   -4.6494888    0.0917289 
H     1.7028680   -3.7592367   -1.1664986 
H     2.6432146   -5.2166182   -1.6067761 
