197
Energy =
C    -1.8460015    2.6822589    1.7153367 
C    -2.9570174    1.8003270    1.5042452 
C    -2.9815824    0.5361442    2.1369560 
H    -3.6921998    2.0238121    0.7213358 
Pd   -1.1244198    0.7858281    0.8425170 
P    -1.0207856   -1.2536559   -0.2611926 
P     1.1340537    1.2392713    0.5137472 
H    -1.3646829    2.6604151    2.7018783 
H    -2.3306862    0.4196468    3.0187537 
C    -1.0001421    6.2214171   -0.5912799 
C    -1.9272856    5.2813300   -1.0719639 
C    -2.2165396    4.1319428   -0.3303351 
C    -1.5966528    3.9004254    0.9216584 
C    -0.6722604    4.8591799    1.3967229 
C    -0.3758492    6.0028274    0.6455395 
H    -0.7702124    7.1176640   -1.1764594 
H    -2.4230549    5.4439646   -2.0347752 
H    -2.9220113    3.3999281   -0.7372499 
H    -0.1761395    4.6960833    2.3597256 
H     0.3455380    6.7297508    1.0316239 
C    -5.7709253   -2.7022551    1.7281530 
C    -4.6725871   -2.8012798    2.5955702 
C    -3.7843643   -1.7293398    2.7181546 
C    -3.9680804   -0.5388998    1.9752641 
C    -5.0780833   -0.4566994    1.1036162 
C    -5.9676793   -1.5284160    0.9827756 
H    -6.4741890   -3.5359205    1.6358398 
H    -4.5097538   -3.7132554    3.1793322 
H    -2.9283804   -1.8101078    3.3956392 
H    -5.2507427    0.4508193    0.5187700 
H    -6.8190821   -1.4501478    0.2997371 
C     0.6156655   -6.2967065   -1.3245062 
C     0.7194579   -6.3382437    0.2148012 
C     2.1919094   -6.6468920    0.5914797 
C    -0.2099940   -7.4575360    0.7484807 
C     0.3117399   -4.9965104    0.8515748 
C    -0.1336528   -3.9080398    0.0842699 
C     0.4013708   -4.8220207    2.2490396 
C     0.0985142   -3.6091873    2.8979632 
C     0.2235485   -3.4808856    4.4284748 
C    -0.9452648   -4.2647604    5.0799895 
C     1.5724693   -4.0698973    4.9106844 
C     0.1566223   -2.0056529    4.8834963 
C    -0.3421206   -2.5413823    2.0981409 
C    -0.4730549   -2.6948795    0.7093476 
C    -2.6486039   -1.6365443   -1.0085949 
C    -3.3402113   -0.5657214   -1.6113698 
C    -4.5446592   -0.7873325   -2.2985955 
C    -5.3109444    0.3494070   -3.0036292 
C    -4.7777506    1.7413153   -2.6021180 
C    -6.8150905    0.2907852   -2.6370252 
C    -5.1396319    0.1751329   -4.5351399 
C    -5.0298851   -2.1104961   -2.3510618 
C    -4.3886421   -3.1911433   -1.7158313 
C    -3.1838196   -2.9317431   -1.0348952 
C    -4.9527367   -4.6207995   -1.8321555 
C    -4.3496730   -5.5605315   -0.7633618 
C    -4.5889218   -5.1610095   -3.2406628 
C    -6.4921722   -4.6224424   -1.6672191 
C     0.1274499   -1.1968349   -1.7102825 
C    -0.3876184   -1.0994650   -3.0173289 
C     0.4721213   -1.0182207   -4.1194142 
C     1.8555631   -1.0749376   -3.9323228 
C     1.5328696   -1.2275461   -1.5006043 
C     2.3738123   -1.2147582   -2.6364987 
C     2.1680852   -1.3306182   -0.1516606 
C     2.9263716   -2.4882689    0.1384422 
O     3.0600785   -3.4673013   -0.8283091 
C     4.3405729   -3.4728896   -1.4956390 
C     4.2803794   -2.6236842   -2.7634209 
O     3.7418671   -1.3177514   -2.4658731 
C     3.5287935   -2.6784693    1.3905855 
C     3.4453054   -1.6705592    2.3544838 
C     2.7560578   -0.4851068    2.0710618 
C     2.1069200   -0.3063723    0.8341393 
C     1.7078296    1.8214860   -1.1141467 
C     3.0822440    1.8029384   -1.4173991 
C     3.5337834    2.2414359   -2.6711927 
C     5.0242511    2.2348344   -3.0594980 
C     5.2155728    1.3479647   -4.3170776 
C     5.4751513    3.6861952   -3.3632971 
C     5.9078051    1.6655369   -1.9296292 
C     2.5644534    2.6817955   -3.5971518 
C     1.1825691    2.6896522   -3.3286579 
C     0.7642441    2.2581597   -2.0559502 
C     0.1829935    3.1900447   -4.3893469 
C     0.5407671    2.6253328   -5.7858967 
C     0.2509341    4.7392730   -4.4225351 
C    -1.2604818    2.7554702   -4.0535204 
C     1.7298103    2.4519085    1.7532286 
C     2.5175153    3.5606943    1.3979299 
C     2.9134576    4.4944913    2.3714103 
C     3.8151451    5.6953588    2.0233926 
C     5.2218689    5.4318071    2.6225810 
C     3.9518419    5.8881037    0.4970453 
C     3.2367188    6.9987793    2.6287370 
C     2.4941355    4.2843069    3.7033972 
C     1.6927962    3.1924885    4.0875777 
C     1.3108528    2.2829834    3.0838786 
C     1.2336405    2.9518460    5.5391388 
C    -0.3088742    2.7980594    5.5751410 
C     1.6297907    4.1121851    6.4753312 
C     1.8938702    1.6469101    6.0559797 
H     0.9314441   -7.2675842   -1.7438485 
H    -0.4205739   -6.1120004   -1.6610059 
H     1.2680598   -5.5126032   -1.7468978 
H     2.5115047   -7.5989198    0.1313016 
H     2.8508289   -5.8391339    0.2297283 
H     2.3249592   -6.7416800    1.6831735 
H     0.0700509   -8.4306650    0.3071824 
H    -1.2630937   -7.2496423    0.4876797 
H    -0.1442737   -7.5536273    1.8462679 
H    -0.1892099   -3.9791220   -1.0042557 
H     0.7428586   -5.6669299    2.8556400 
H    -0.9136940   -5.3315367    4.7979478 
H    -0.8909149   -4.1983996    6.1815089 
H    -1.9196505   -3.8575437    4.7560426 
H     1.6699207   -3.9483867    6.0038356 
H     2.4195084   -3.5551361    4.4258707 
H     1.6561789   -5.1474884    4.6904431 
H    -0.8258948   -1.5481149    4.6694521 
H     0.3141505   -1.9413367    5.9737497 
H     0.9351553   -1.3995177    4.3876770 
H    -0.5650240   -1.5642802    2.5344159 
H    -2.9132787    0.4408017   -1.5421585 
H    -5.3691494    2.5267606   -3.1027948 
H    -3.7245855    1.8837404   -2.8951482 
H    -4.8613745    1.9044681   -1.5123308 
H    -7.2844503   -0.6559505   -2.9527935 
H    -7.3585069    1.1122151   -3.1358942 
H    -6.9600241    0.3974192   -1.5473536 
H    -5.6856930    0.9671486   -5.0784598 
H    -5.5278464   -0.8016539   -4.8720554 
H    -4.0730956    0.2340829   -4.8165828 
H    -5.9549012   -2.3037315   -2.9019652 
H    -2.6519425   -3.7386580   -0.5280086 
H    -4.8243009   -6.5543598   -0.8321896 
H    -3.2640679   -5.7063814   -0.9034364 
H    -4.5152273   -5.1690237    0.2558051 
H    -3.4936513   -5.1811795   -3.3810157 
H    -4.9750183   -6.1879491   -3.3717828 
H    -5.0224876   -4.5262741   -4.0334314 
H    -6.7868285   -4.1921516   -0.6950882 
H    -6.8743853   -5.6568124   -1.7174012 
H    -6.9973601   -4.0489095   -2.4627783 
H    -1.4685352   -1.0968628   -3.1782429 
H     0.0568394   -0.9271123   -5.1281697 
H     2.5485909   -1.0241230   -4.7771308 
H     4.5710797   -4.5223516   -1.7482605 
H     5.1164402   -3.0918200   -0.8071001 
H     5.2949011   -2.4723581   -3.1710324 
H     3.6552960   -3.1134720   -3.5320046 
H     4.0679856   -3.6105419    1.5833083 
H     3.9321354   -1.7967585    3.3268017 
H     2.7388821    0.3128660    2.8172810 
H     3.7853105    1.4199313   -0.6741053 
H     4.8862912    0.3165977   -4.1048359 
H     6.2806493    1.3267236   -4.6096053 
H     4.6391746    1.7277080   -5.1784897 
H     6.5427903    3.7038993   -3.6462597 
H     5.3415515    4.3317630   -2.4771052 
H     4.8983768    4.1271603   -4.1947456 
H     5.6224870    0.6273409   -1.6859419 
H     6.9642107    1.6644285   -2.2494869 
H     5.8401191    2.2750422   -1.0104792 
H     2.9055130    3.0236231   -4.5792669 
H    -0.2947113    2.2420140   -1.7837017 
H    -0.2087367    2.9526571   -6.5277997 
H     1.5250364    2.9768841   -6.1384639 
H     0.5561555    1.5217104   -5.7713109 
H     1.2644173    5.0840417   -4.6926168 
H    -0.4594189    5.1424120   -5.1671178 
H    -0.0003866    5.1608762   -3.4338211 
H    -1.3355140    1.6574256   -3.9595833 
H    -1.9468051    3.0791414   -4.8553054 
H    -1.6144347    3.2088453   -3.1131051 
H     2.8075137    3.6936362    0.3546891 
H     5.6599385    4.5100433    2.2010332 
H     5.8999995    6.2738607    2.3955173 
H     5.1751822    5.3165184    3.7196580 
H     4.4455520    5.0263363    0.0141557 
H     4.5687941    6.7792288    0.2898403 
H     2.9679549    6.0350565    0.0169117 
H     3.1818444    6.9577932    3.7298333 
H     3.8792610    7.8560139    2.3620212 
H     2.2214313    7.1983973    2.2444868 
H     2.8037965    5.0040658    4.4642916 
H     0.6706442    1.4288925    3.3359554 
H    -0.6481184    1.9221822    4.9933201 
H    -0.8055370    3.6960763    5.1672004 
H    -0.6544637    2.6554107    6.6140790 
H     1.1866485    5.0690212    6.1474557 
H     1.2669486    3.9059639    7.4969087 
H     2.7253061    4.2363487    6.5320794 
H     2.9944773    1.7318642    6.0386976 
H     1.5788680    1.4412437    7.0946189 
H     1.6081680    0.7778017    5.4378586 
