200
Energy =
C     3.4733434    0.2364833    1.3258668 
C     3.4488679    1.5481558    0.7569239 
C     2.5418608    2.5310178    1.2093637 
H     4.0080851    1.7436995   -0.1669553 
Pd    1.4444064    0.6500466    0.5271721 
P    -0.4366237    1.5098721   -0.5493341 
P     0.4885957   -1.4550014    0.8123803 
H     3.2518540    0.1393860    2.3968453 
H     2.0783681    2.3796412    2.1978685 
C     5.6506703   -3.0725183   -0.3715682 
C     5.3343954   -1.9601427   -1.1699723 
C     4.6287634   -0.8822150   -0.6284470 
C     4.2306729   -0.8820404    0.7303330 
C     4.5584350   -2.0055221    1.5218058 
C     5.2594684   -3.0874420    0.9748050 
H     6.1998333   -3.9184057   -0.7975953 
H     5.6372479   -1.9358334   -2.2220163 
H     4.3720486   -0.0346449   -1.2735082 
H     4.2538563   -2.0293723    2.5736427 
H     5.5037007   -3.9464460    1.6074233 
C     2.1444274    6.5150925   -0.3525224 
C     1.1159952    5.9416187    0.4115447 
C     1.2586109    4.6486549    0.9232592 
C     2.4255842    3.8934291    0.6645028 
C     3.4569385    4.4860429   -0.0982962 
C     3.3180112    5.7859124   -0.5965759 
H     2.0371324    7.5299063   -0.7484058 
H     0.1966342    6.5034742    0.6064449 
H     0.4466446    4.2014217    1.5070026 
H     4.3900966    3.9409438   -0.2715137 
H     4.1354661    6.2383685   -1.1672101 
C    -2.0334085   -5.8373235   -3.0212882 
C    -1.0750086   -5.8916291   -1.8040109 
C    -0.1073313   -7.0931554   -1.9515987 
C    -1.9214554   -6.0883666   -0.5287710 
C    -0.2566174   -4.5879009   -1.7518383 
C    -0.2660943   -3.7388591   -0.6341887 
C     0.5237171   -4.2012984   -2.8610754 
C     1.2739044   -3.0103882   -2.9039346 
C     2.0923868   -2.6521427   -4.1594529 
C     2.6009764   -1.1951538   -4.1084081 
C     3.3082883   -3.6112395   -4.2389413 
C     1.2221047   -2.8114448   -5.4306489 
C     1.2594629   -2.1929174   -1.7600294 
C     0.4983419   -2.5578087   -0.6383863 
C     1.2781618   -2.3685878    2.1923852 
C     1.6939954   -3.7051678    2.0709383 
C     2.3037329   -4.3638841    3.1534076 
C     2.7059564   -5.8497920    3.0689172 
C     1.6645212   -6.6704206    3.8754586 
C     4.1127013   -6.0744329    3.6761238 
C     2.7204933   -6.3574450    1.6098208 
C     2.4928099   -3.6393222    4.3501366 
C     2.1061103   -2.2931422    4.4960588 
C     1.4981427   -1.6687972    3.3910581 
C     2.2978700   -1.4998259    5.8035487 
C     3.1663922   -2.2631633    6.8251399 
C     2.9834403   -0.1433665    5.4973635 
C     0.9012289   -1.2432744    6.4280490 
C    -1.2913450   -1.3166280    1.3077081 
C    -1.6796532   -1.5176131    2.6479881 
C    -3.0175715   -1.3631623    3.0298905 
C    -3.9906984   -1.0177430    2.0865357 
C    -2.2642378   -0.9660427    0.3378944 
C    -3.6149216   -0.8391530    0.7471026 
C    -1.9823684   -0.7957354   -1.1209139 
C    -2.5636354   -1.7366430   -2.0054836 
O    -3.2604123   -2.7754625   -1.4447816 
C    -4.6403189   -2.9841630   -1.8221372 
C    -5.5500779   -2.7038922   -0.6225690 
C    -5.7553919   -1.2178460   -0.3153383 
O    -4.5132877   -0.4921200   -0.2310041 
C    -2.3846463   -1.6384038   -3.3935505 
C    -1.6487095   -0.5707030   -3.9183061 
C    -1.0803643    0.3842937   -3.0665859 
C    -1.2399821    0.2795175   -1.6700147 
C    -1.7579892    2.0844173    0.5695880 
C    -3.0463041    2.3935133    0.0995344 
C    -4.0305200    2.8550090    0.9900804 
C    -5.4538691    3.2170677    0.5249134 
C    -5.6944174    4.7285972    0.7708043 
C    -6.4813353    2.3840818    1.3327677 
C    -5.6616846    2.9195718   -0.9751652 
C    -3.6818409    2.9778172    2.3514954 
C    -2.4111883    2.6384016    2.8566493 
C    -1.4504595    2.1906139    1.9359369 
C    -2.1026641    2.7671171    4.3603758 
C    -0.7098156    2.1971174    4.7067638 
C    -3.1611492    1.9859565    5.1789373 
C    -2.1401445    4.2666498    4.7513761 
C     0.0004874    2.8870964   -1.6740785 
C     1.2159053    2.7672254   -2.3712608 
C     1.5813338    3.7106362   -3.3470822 
C     2.8524830    3.5354065   -4.2014573 
C     3.8695293    2.5873448   -3.5263142 
C     3.5493601    4.8951009   -4.4460574 
C     2.4253717    2.9221839   -5.5616201 
C     0.7008007    4.7879551   -3.5683750 
C    -0.5070728    4.9546966   -2.8598994 
C    -0.8485756    3.9809132   -1.9059274 
C    -1.4165420    6.1630506   -3.1594320 
C    -2.6720743    6.1787742   -2.2610106 
C    -0.6305086    7.4771595   -2.9202585 
C    -1.8728340    6.0932448   -4.6398606 
H    -2.6553271   -6.7493153   -3.0610847 
H    -1.4831856   -5.7649959   -3.9751929 
H    -2.6969628   -4.9600557   -2.9408408 
H    -0.6752181   -8.0395225   -1.9989454 
H     0.4997799   -7.0165917   -2.8703439 
H     0.5836588   -7.1469157   -1.0918630 
H    -2.5089357   -7.0191114   -0.6119415 
H    -2.6235732   -5.2491985   -0.3825127 
H    -1.2882788   -6.1754369    0.3724499 
H    -0.8834826   -3.9690058    0.2370098 
H     0.5356616   -4.8549416   -3.7392485 
H     3.1376690   -0.9507672   -5.0414150 
H     1.7640621   -0.4825556   -3.9991749 
H     3.3021572   -1.0372610   -3.2721046 
H     3.9336971   -3.5230453   -3.3339512 
H     2.9804421   -4.6620764   -4.3234962 
H     3.9306529   -3.3748907   -5.1210213 
H     1.8045624   -2.5286335   -6.3252548 
H     0.8821452   -3.8511277   -5.5738248 
H     0.3301751   -2.1641637   -5.3765621 
H     1.8215286   -1.2556361   -1.7269934 
H     1.5472769   -4.2233830    1.1223592 
H     0.6514251   -6.5350107    3.4572408 
H     1.6416180   -6.3554200    4.9334480 
H     1.9130321   -7.7464455    3.8424873 
H     4.8745109   -5.4746602    3.1487826 
H     4.1522916   -5.8108141    4.7465646 
H     4.3940191   -7.1384333    3.5894377 
H     1.7161666   -6.3284815    1.1519931 
H     3.0618402   -7.4065680    1.5855127 
H     3.4030365   -5.7597855    0.9799429 
H     2.9617486   -4.1465458    5.1959823 
H     1.1901296   -0.6185813    3.4576688 
H     2.6940837   -3.2100825    7.1395379 
H     3.3029919   -1.6470803    7.7304364 
H     4.1667804   -2.4913790    6.4169575 
H     2.3640905    0.4946088    4.8420097 
H     3.1530491    0.4171924    6.4333275 
H     3.9610338   -0.2967833    5.0067624 
H     0.2523095   -0.6736788    5.7402598 
H     0.9970227   -0.6628374    7.3632321 
H     0.3967236   -2.1968666    6.6624473 
H    -0.9413483   -1.8161405    3.3958216 
H    -3.3043231   -1.5225042    4.0743725 
H    -5.0342314   -0.8876802    2.3859631 
H    -4.8972805   -2.3432774   -2.6859376 
H    -4.7325445   -4.0398496   -2.1304725 
H    -6.5442875   -3.1512727   -0.8105989 
H    -5.1265875   -3.2211387    0.2575004 
H    -6.2958595   -0.7155568   -1.1342597 
H    -6.3530128   -1.0892429    0.6073890 
H    -2.8170891   -2.4007092   -4.0483568 
H    -1.5153395   -0.4795766   -5.0010778 
H    -0.5201061    1.2212045   -3.4914018 
H    -3.2778950    2.2407989   -0.9567105 
H    -6.7126062    5.0120522    0.4494612 
H    -5.5917942    4.9883830    1.8388201 
H    -4.9698870    5.3367114    0.2007151 
H    -6.4261307    2.5965581    2.4141585 
H    -7.5084740    2.6138487    0.9980637 
H    -6.2989128    1.3060388    1.1861132 
H    -5.4783253    1.8550198   -1.2008364 
H    -6.7000263    3.1605717   -1.2612443 
H    -4.9940401    3.5299297   -1.6087515 
H    -4.4417113    3.3384379    3.0527585 
H    -0.4521524    1.8899176    2.2656384 
H    -0.6282857    1.1351002    4.4143734 
H     0.1012679    2.7588506    4.2093010 
H    -0.5372174    2.2623917    5.7945936 
H    -2.9421945    2.0640394    6.2586397 
H    -3.1584673    0.9188677    4.8982034 
H    -4.1789341    2.3794364    5.0157160 
H    -3.1305097    4.7103811    4.5495344 
H    -1.3879445    4.8388447    4.1798096 
H    -1.9250064    4.3899530    5.8279089 
H     1.8652803    1.9131709   -2.1511961 
H     4.1468848    2.9532372   -2.5224982 
H     4.7877563    2.5300101   -4.1355668 
H     3.4783685    1.5604588   -3.4285594 
H     4.4795908    4.7432095   -5.0207869 
H     2.9171121    5.5883176   -5.0260833 
H     3.8062484    5.3828912   -3.4904757 
H     1.9428751    1.9396394   -5.4129956 
H     3.3046532    2.7806570   -6.2158471 
H     1.7084719    3.5794971   -6.0840008 
H     0.9659638    5.5317225   -4.3257315 
H    -1.7723545    4.0701646   -1.3326106 
H    -2.4085783    6.2299570   -1.1893526 
H    -3.2869592    7.0639395   -2.4977981 
H    -3.3010278    5.2848739   -2.4194832 
H    -1.2645354    8.3491287   -3.1599857 
H     0.2742368    7.5346919   -3.5495392 
H    -0.3169455    7.5570737   -1.8656586 
H    -2.5321895    6.9470432   -4.8776090 
H    -2.4305317    5.1601605   -4.8337793 
H    -1.0143459    6.1274978   -5.3326840 
