197
Energy =
C    -0.6288343   -3.1741970    1.7756365 
C    -0.6152524   -3.7373638    0.4617020 
C     0.5446255   -3.7054979   -0.3434969 
H    -1.5637924   -4.0280250   -0.0076957 
Pd   -0.0497345   -1.6062738    0.3135907 
P     0.3650975   -0.3211029   -1.5824711 
P    -0.0619343    0.2580603    1.7087647 
H     0.2930062   -3.2368777    2.3687402 
H     1.5102853   -3.5351616    0.1603661 
C    -4.2103779   -2.5378600    4.0861661 
C    -4.2988486   -2.7211116    2.6957225 
C    -3.1432396   -2.9275526    1.9372355 
C    -1.8681972   -2.9703774    2.5513931 
C    -1.7949816   -2.7890070    3.9507411 
C    -2.9537059   -2.5735199    4.7069738 
H    -5.1157151   -2.3716274    4.6789274 
H    -5.2751977   -2.6987103    2.2004856 
H    -3.2322728   -3.0449364    0.8515185 
H    -0.8180531   -2.8116623    4.4454586 
H    -2.8728893   -2.4360257    5.7896798 
C     0.8697401   -5.1611698   -4.3753899 
C     1.8137922   -4.2583905   -3.8620249 
C     1.7029355   -3.8002197   -2.5467421 
C     0.6378625   -4.2224169   -1.7189702 
C    -0.2965265   -5.1439154   -2.2424711 
C    -0.1774074   -5.6105282   -3.5563899 
H     0.9566764   -5.5235313   -5.4048942 
H     2.6370440   -3.9053002   -4.4904336 
H     2.4330059   -3.0820392   -2.1608291 
H    -1.1015884   -5.5268382   -1.6073006 
H    -0.8977460   -6.3404131   -3.9395346 
C    -3.1491644    5.7783170    1.9443423 
C    -2.7264193    4.7428843    3.0185062 
C    -3.7421092    4.7527128    4.1890989 
C    -1.3395075    5.1488830    3.5599302 
C    -2.7035909    3.3400144    2.3829626 
C    -1.5451525    2.5487738    2.3509364 
C    -3.8702116    2.8149562    1.7883188 
C    -3.9211781    1.5557668    1.1607317 
C    -5.2344870    1.0504938    0.5324543 
C    -6.1975091    0.6516905    1.6809914 
C    -4.9936973   -0.1761369   -0.3748042 
C    -5.8871510    2.1618126   -0.3260188 
C    -2.7465437    0.7812336    1.1605444 
C    -1.5742303    1.2751973    1.7523360 
C     0.3157755   -0.2082998    3.4419208 
C    -0.4406989    0.2655306    4.5273744 
C    -0.1275808   -0.1267776    5.8406805 
C    -0.9008946    0.4273310    7.0537273 
C    -1.2453493   -0.7078991    8.0493639 
C     0.0055326    1.4698713    7.7607005 
C    -2.2170332    1.1158677    6.6288246 
C     0.9564148   -1.0115908    6.0286329 
C     1.7201243   -1.5197172    4.9605300 
C     1.3748694   -1.1055110    3.6604255 
C     2.9061923   -2.4842194    5.1564674 
C     3.0485560   -2.9425767    6.6225477 
C     4.2088554   -1.7564003    4.7330214 
C     2.7038281   -3.7397858    4.2692982 
C     1.2866048    1.4414825    1.2388358 
C     2.4800266    1.4782126    1.9853468 
C     3.5206738    2.3457957    1.6321897 
C     3.3699533    3.2125044    0.5475799 
C     1.1250372    2.3037599    0.1189873 
C     2.1697695    3.2090912   -0.1776750 
C    -0.1099803    2.3561501   -0.7194397 
C    -0.8496355    3.5614659   -0.7414421 
O    -0.4053852    4.6402861   -0.0001589 
C     0.2251066    5.6804710   -0.7769957 
C     1.7345454    5.4539948   -0.8264895 
O     2.0170828    4.0961938   -1.2268873 
C    -2.0400439    3.6803871   -1.4728831 
C    -2.4793489    2.6083509   -2.2536473 
C    -1.7358849    1.4233851   -2.2975044 
C    -0.5594028    1.2827632   -1.5353325 
C     2.1016185    0.1402842   -1.8977035 
C     2.4299803    1.1756141   -2.7960550 
C     3.7712914    1.5124391   -3.0253469 
C     4.1810395    2.6414405   -3.9900073 
C     4.9833707    3.7113183   -3.2050834 
C     2.9539385    3.3298876   -4.6243397 
C     5.0581428    2.0472051   -5.1214255 
C     4.7654929    0.7841662   -2.3296481 
C     4.4674358   -0.2430542   -1.4184583 
C     3.1076663   -0.5491577   -1.2091090 
C     5.5460402   -1.0445349   -0.6631236 
C     5.2888793   -0.9493884    0.8621640 
C     6.9686812   -0.5237561   -0.9522654 
C     5.4617807   -2.5290766   -1.1047322 
C    -0.2911244   -1.1255993   -3.0914285 
C    -1.4963739   -1.8426433   -2.9469114 
C    -2.1640372   -2.3552583   -4.0678174 
C    -3.5464851   -3.0267736   -3.9503958 
C    -3.8566488   -3.4546250   -2.4985400 
C    -3.6310694   -4.2808926   -4.8531625 
C    -4.6123660   -1.9925572   -4.4013336 
C    -1.5618422   -2.1633074   -5.3322574 
C    -0.3400835   -1.4889126   -5.5027995 
C     0.2888175   -0.9639712   -4.3548003 
C     0.3185606   -1.2816711   -6.8813377 
C    -0.5142453   -1.8956072   -8.0254703 
C     0.4702716    0.2395466   -7.1441800 
C     1.7190395   -1.9465030   -6.8833163 
H    -3.1660965    6.7935906    2.3795138 
H    -2.4330182    5.7647455    1.1052698 
H    -4.1570312    5.5681227    1.5460984 
H    -3.7758239    5.7522769    4.6580940 
H    -4.7621916    4.5063815    3.8466132 
H    -3.4566049    4.0175086    4.9622726 
H    -1.3926529    6.1623180    3.9939932 
H    -0.5851214    5.1602171    2.7541062 
H    -0.9944227    4.4646299    4.3559728 
H    -0.6050350    2.9204663    2.7648143 
H    -4.7789563    3.4249051    1.8051052 
H    -7.1495414    0.2671752    1.2722914 
H    -5.7454109   -0.1308502    2.3143802 
H    -6.4262095    1.5191883    2.3245164 
H    -5.9394070   -0.4796240   -0.8561848 
H    -4.6224544   -1.0414951    0.1989605 
H    -4.2623711    0.0513278   -1.1707275 
H    -6.1662234    3.0429635    0.2761011 
H    -6.8096832    1.7809546   -0.7984788 
H    -5.2008352    2.4957357   -1.1228052 
H    -2.7198866   -0.2049481    0.6889722 
H    -1.2814976    0.9340680    4.3379160 
H    -1.8621886   -1.4860589    7.5675331 
H    -1.8142453   -0.2996945    8.9028358 
H    -0.3427783   -1.1929822    8.4581094 
H     0.2596161    2.2964820    7.0740067 
H     0.9486189    1.0104544    8.1051237 
H    -0.5107487    1.8949166    8.6400840 
H    -2.7646009    1.4541034    7.5251950 
H    -2.0344963    2.0052565    6.0004913 
H    -2.8719259    0.4261984    6.0671595 
H     1.2081486   -1.3153268    7.0469908 
H     1.9360145   -1.4865712    2.7986304 
H     3.2502987   -2.0940012    7.2992768 
H     3.8951511   -3.6448082    6.7116468 
H     2.1407978   -3.4625441    6.9761629 
H     4.1683505   -1.4362217    3.6772550 
H     4.3752624   -0.8599071    5.3554100 
H     5.0798539   -2.4256823    4.8507387 
H     1.7579089   -4.2519764    4.5193444 
H     2.6841459   -3.4855809    3.1943222 
H     3.5325058   -4.4532810    4.4223319 
H     2.5975397    0.8364507    2.8614311 
H     4.4455927    2.3528244    2.2177334 
H     4.1640806    3.9061236    0.2563440 
H    -0.2021740    5.6904096   -1.7960921 
H    -0.0041774    6.6407633   -0.2835637 
H     2.1918224    5.6501783    0.1602873 
H     2.2000091    6.1181530   -1.5750325 
H    -2.5999449    4.6188642   -1.4247199 
H    -3.3971792    2.6965835   -2.8434454 
H    -2.0704995    0.6043938   -2.9388626 
H     1.6252009    1.7316833   -3.2821727 
H     5.8951916    3.2885929   -2.7487352 
H     4.3572075    4.1391017   -2.4038586 
H     5.2940563    4.5265055   -3.8827288 
H     2.3560218    2.6243951   -5.2286897 
H     2.3022881    3.7731880   -3.8519073 
H     3.2897763    4.1385593   -5.2962670 
H     5.9759725    1.5789919   -4.7254407 
H     5.3622027    2.8415324   -5.8262174 
H     4.5001706    1.2792834   -5.6865104 
H     5.8119778    1.0453400   -2.5051897 
H     2.8165681   -1.3198309   -0.4865276 
H     6.0383365   -1.5432997    1.4147457 
H     5.3497098    0.0964349    1.2065634 
H     4.2896593   -1.3331258    1.1331628 
H     7.2279829   -0.6140927   -2.0216239 
H     7.7048026   -1.1149196   -0.3808146 
H     7.0827994    0.5335547   -0.6543132 
H     6.2403694   -3.1257938   -0.5970966 
H     4.4823633   -2.9727703   -0.8523253 
H     5.6076872   -2.6248888   -2.1948207 
H    -1.9136510   -1.9672958   -1.9419763 
H    -3.0863505   -4.1462386   -2.1149872 
H    -4.8294018   -3.9741946   -2.4622131 
H    -3.9218771   -2.5897123   -1.8163188 
H    -2.8489006   -5.0108133   -4.5849925 
H    -4.6156107   -4.7658094   -4.7336747 
H    -3.5157824   -4.0323143   -5.9216457 
H    -4.5830406   -1.0954476   -3.7571961 
H    -5.6255058   -2.4294081   -4.3400446 
H    -4.4380535   -1.6714799   -5.4430183 
H    -2.0736346   -2.5559436   -6.2132128 
H     1.2356096   -0.4245778   -4.4473280 
H    -0.0033264   -1.7254938   -8.9886932 
H    -1.5163350   -1.4368880   -8.0940615 
H    -0.6373350   -2.9860510   -7.9009597 
H     1.1093131    0.7233064   -6.3848982 
H     0.9330430    0.4118489   -8.1322254 
H    -0.5136053    0.7403641   -7.1306979 
H     2.2178799   -1.7810822   -7.8547824 
H     1.6336876   -3.0345183   -6.7200765 
H     2.3699432   -1.5316056   -6.0936561 
