197
Energy =
C    -1.6994886    2.4846717    2.1792918 
C    -2.7956072    1.5792860    2.0079651 
C    -2.7170213    0.2684218    2.5332112 
H    -3.6197247    1.8442642    1.3339028 
Pd   -1.0211408    0.6858109    1.0702591 
P    -0.9607708   -1.3351176   -0.0812491 
P     1.1286036    1.2571144    0.4088375 
H    -1.1069753    2.3790984    3.0985950 
H    -1.9776244    0.1090304    3.3343634 
C    -1.4097763    6.3827914    0.3676661 
C    -0.6928459    6.0765575    1.5333476 
C    -0.7944443    4.8052645    2.1090713 
C    -1.6153420    3.8092175    1.5348045 
C    -2.3231583    4.1278881    0.3514801 
C    -2.2265593    5.4013370   -0.2186209 
H    -1.3339406    7.3774481   -0.0835697 
H    -0.0534573    6.8310188    2.0033456 
H    -0.2290376    4.5749297    3.0162650 
H    -2.9457070    3.3689217   -0.1352767 
H    -2.7873198    5.6307106   -1.1304578 
C    -5.5022579   -2.9838393    2.2073695 
C    -4.3237757   -3.1166509    2.9565998 
C    -3.4342443   -2.0426138    3.0516346 
C    -3.6987340   -0.8153276    2.3991055 
C    -4.8877886   -0.7003210    1.6429151 
C    -5.7776834   -1.7741774    1.5488947 
H    -6.2063955   -3.8191566    2.1391681 
H    -4.0987476   -4.0568530    3.4706987 
H    -2.5155955   -2.1508288    3.6366481 
H    -5.1215094    0.2348392    1.1265042 
H    -6.6912504   -1.6691709    0.9555206 
C    -0.2410011   -4.2987003    5.2814969 
C     0.7983217   -3.4556903    4.4976039 
C     2.2260530   -3.9571527    4.8286294 
C     0.6910287   -1.9817709    4.9485474 
C     0.5141684   -3.6135046    2.9912704 
C    -0.0323818   -2.5712651    2.2243919 
C     0.7792034   -4.8307984    2.3336595 
C     0.5511693   -5.0320637    0.9560857 
C     0.9283033   -6.3733344    0.2998490 
C     0.6993032   -6.3482912   -1.2262765 
C     2.4310820   -6.6565280    0.5578489 
C     0.0627571   -7.5006065    0.9177525 
C    -0.0017222   -3.9694965    0.2226901 
C    -0.3067541   -2.7536064    0.8597505 
C    -2.6428016   -1.7221267   -0.6904653 
C    -3.3812076   -0.6393577   -1.2093751 
C    -4.6280354   -0.8491196   -1.8191721 
C    -5.4572999    0.3044377   -2.4169867 
C    -4.8718153    1.6866831   -2.0552624 
C    -6.9095312    0.2444774   -1.8793002 
C    -5.4659878    0.1570921   -3.9606846 
C    -5.1026702   -2.1756364   -1.8868687 
C    -4.4081579   -3.2715357   -1.3388842 
C    -3.1632086   -3.0224508   -0.7289946 
C    -4.9640793   -4.7023990   -1.4779896 
C    -4.7130464   -5.1683100   -2.9367566 
C    -6.4845365   -4.7346221   -1.1869843 
C    -4.2642530   -5.6839423   -0.5108963 
C     0.0486932   -1.3349977   -1.6310843 
C    -0.5854904   -1.3859289   -2.8868810 
C     0.1686670   -1.4085516   -4.0666266 
C     1.5634141   -1.4043735   -4.0037968 
C     1.4671867   -1.3130410   -1.5494876 
C     2.2013636   -1.3844106   -2.7544863 
C     2.2210427   -1.3045509   -0.2596510 
C     3.0443930   -2.4212906    0.0229119 
O     3.1276208   -3.4503366   -0.8963328 
C     4.3527179   -3.4692251   -1.6603792 
C     4.1645233   -2.7036196   -2.9689689 
O     3.5827125   -1.4101398   -2.7042423 
C     3.7634898   -2.5230235    1.2220436 
C     3.7334698   -1.4646522    2.1331290 
C     2.9769340   -0.3210304    1.8521329 
C     2.2078429   -0.2306450    0.6750752 
C     1.4150021    1.7604983   -1.3196701 
C     2.7281160    1.7652818   -1.8332476 
C     2.9708988    2.1907224   -3.1451911 
C     4.3859210    2.2172988   -3.7528770 
C     4.4214648    1.2877978   -4.9933027 
C     4.7301608    3.6701386   -4.1695327 
C     5.4512743    1.7240577   -2.7509007 
C     1.8609114    2.6027888   -3.9198895 
C     0.5413631    2.5995568   -3.4375971 
C     0.3334851    2.1682009   -2.1095899 
C    -0.6637243    3.0239650   -4.3011798 
C    -0.2309292    3.6311992   -5.6516204 
C    -1.5018803    4.0773688   -3.5360299 
C    -1.5409883    1.7766759   -4.5785884 
C     1.8535983    2.5858063    1.4457284 
C     2.5015392    3.6879003    0.8777631 
C     3.0256789    4.7164829    1.6900150 
C     3.7606445    5.8926151    1.0177966 
C     4.1627064    6.9832858    2.0316225 
C     5.0441462    5.3431815    0.3396133 
C     2.8489051    6.5339837   -0.0598077 
C     2.8781345    4.5933847    3.0806958 
C     2.2181448    3.4974506    3.6871573 
C     1.6952628    2.5051385    2.8470100 
C     2.0931662    3.4271529    5.2219230 
C     3.5148802    3.3570021    5.8370289 
C     1.2995952    2.1857450    5.6825829 
C     1.3640773    4.6922943    5.7428370 
H    -0.0679985   -4.2136048    6.3693500 
H    -1.2685205   -3.9544960    5.0669934 
H    -0.1774713   -5.3659532    5.0066947 
H     2.4356207   -3.8222522    5.9043633 
H     2.3514067   -5.0289700    4.5997002 
H     2.9803689   -3.3942665    4.2528875 
H     0.9506600   -1.8977819    6.0177796 
H    -0.3336850   -1.5856987    4.8307878 
H     1.3795572   -1.3348148    4.3763374 
H    -0.2273267   -1.5906722    2.6660925 
H     1.2039969   -5.6558641    2.9146852 
H     1.2970899   -5.5535374   -1.7059627 
H     1.0016980   -7.3158471   -1.6628028 
H    -0.3645209   -6.1895899   -1.4792357 
H     2.7292134   -7.6029153    0.0723511 
H     2.6522527   -6.7502215    1.6351099 
H     3.0455839   -5.8370116    0.1477232 
H    -1.0109321   -7.3123058    0.7390245 
H     0.3230696   -8.4748430    0.4668059 
H     0.2171014   -7.5807997    2.0079620 
H    -0.1651542   -4.0618145   -0.8533156 
H    -2.9567237    0.3676269   -1.1344130 
H    -5.5102967    2.4833285   -2.4737586 
H    -3.8570682    1.8297177   -2.4636541 
H    -4.8305562    1.8327418   -0.9606700 
H    -7.4119567   -0.7001552   -2.1472116 
H    -7.5062690    1.0708881   -2.3036810 
H    -6.9269042    0.3399164   -0.7791687 
H    -6.0597996    0.9662328   -4.4224044 
H    -5.9059526   -0.8071599   -4.2687796 
H    -4.4389318    0.2077083   -4.3630019 
H    -6.0619298   -2.3600408   -2.3797389 
H    -2.5887266   -3.8398978   -0.2896784 
H    -5.0957513   -6.1941094   -3.0853777 
H    -5.2197227   -4.5040147   -3.6587483 
H    -3.6332523   -5.1636076   -3.1684811 
H    -7.0595046   -4.1269054   -1.9061605 
H    -6.8595158   -5.7702332   -1.2610429 
H    -6.7014584   -4.3605429   -0.1722491 
H    -3.1919701   -5.8047989   -0.7459876 
H    -4.7307395   -6.6807141   -0.5916945 
H    -4.3509788   -5.3467017    0.5369535 
H    -1.6757957   -1.4195990   -2.9467743 
H    -0.3377424   -1.4406687   -5.0363946 
H     2.1741441   -1.4270051   -4.9111531 
H     4.5944761   -4.5268249   -1.8635050 
H     5.1676885   -3.0244220   -1.0610350 
H     5.1386066   -2.5292577   -3.4572610 
H     3.5128405   -3.2672290   -3.6611271 
H     4.3491722   -3.4268385    1.4136798 
H     4.3117532   -1.5192278    3.0610410 
H     3.0002691    0.5158026    2.5535759 
H     3.5468900    1.4183110   -1.1985577 
H     4.1936420    0.2505936   -4.6940219 
H     5.4247840    1.3074049   -5.4551105 
H     3.6918315    1.5988980   -5.7610428 
H     5.7447717    3.7123546   -4.6040390 
H     4.7001976    4.3450918   -3.2955874 
H     4.0245376    4.0587456   -4.9241955 
H     5.2499364    0.6863698   -2.4334547 
H     6.4466339    1.7495824   -3.2272760 
H     5.4966919    2.3663643   -1.8531728 
H     2.0447778    2.9323045   -4.9454085 
H    -0.6741301    2.1399852   -1.6799120 
H    -1.1237164    3.9408204   -6.2219531 
H     0.4051820    4.5227148   -5.5107143 
H     0.3212402    2.9037369   -6.2721368 
H    -0.8926082    4.9621935   -3.2828075 
H    -2.3558022    4.4071325   -4.1544940 
H    -1.9064888    3.6698286   -2.5955053 
H    -0.9846326    1.0334912   -5.1737607 
H    -2.4502063    2.0619140   -5.1378898 
H    -1.8529236    1.2852766   -3.6408453 
H     2.5988376    3.7527074   -0.2087531 
H     4.8641020    6.5989630    2.7929046 
H     4.6672598    7.8118378    1.5056799 
H     3.2809586    7.4014869    2.5493141 
H     5.7130108    4.8756590    1.0832320 
H     5.5953665    6.1621995   -0.1561158 
H     4.8019858    4.5849573   -0.4261351 
H     1.9161262    6.9162370    0.3878089 
H     3.3738387    7.3764822   -0.5438172 
H     2.5728805    5.8137296   -0.8492537 
H     3.2830724    5.3758189    3.7273543 
H     1.1510872    1.6553859    3.2692068 
H     4.1158125    4.2438846    5.5726094 
H     4.0532281    2.4621759    5.4777759 
H     3.4533740    3.3058270    6.9386828 
H     1.7879078    1.2448000    5.3723630 
H     1.2300923    2.1766249    6.7837635 
H     0.2678131    2.1893850    5.2860616 
H     0.3423134    4.7588401    5.3287431 
H     1.2848129    4.6604450    6.8438745 
H     1.9023820    5.6165866    5.4720815 
