197
Energy =
C    -0.3994028   -3.2398614    1.7710282 
C    -0.5438307   -3.7525466    0.4470890 
C     0.5173640   -3.6812186   -0.4838436 
H    -1.5388492   -4.0523841    0.0927134 
Pd   -0.0402437   -1.6083859    0.2882610 
P     0.3264672   -0.2760968   -1.5933492 
P    -0.0603733    0.2436136    1.6959248 
H     0.6019744   -3.2890069    2.2200836 
H     1.5302247   -3.5184216   -0.0811964 
C    -3.6001040   -3.1105600    4.6501380 
C    -2.2665729   -3.2347826    5.0648531 
C    -1.2354106   -3.2614383    4.1194941 
C    -1.5127969   -3.1700880    2.7380544 
C    -2.8615152   -3.0331366    2.3343619 
C    -3.8919961   -3.0089785    3.2796733 
H    -4.4090224   -3.0885487    5.3876513 
H    -2.0238455   -3.3126366    6.1297058 
H    -0.1980305   -3.3561930    4.4513640 
H    -3.1035514   -2.9328871    1.2697649 
H    -4.9304338   -2.9056967    2.9491975 
C     0.4471967   -5.1178819   -4.5342813 
C     1.4311968   -4.2095741   -4.1144615 
C     1.4501993   -3.7551773   -2.7929059 
C     0.4720565   -4.1833954   -1.8665660 
C    -0.5052242   -5.1084207   -2.2980229 
C    -0.5115969   -5.5750023   -3.6170690 
H     0.4334534   -5.4760512   -5.5686396 
H     2.1859945   -3.8497243   -4.8210391 
H     2.2130447   -3.0358241   -2.4761166 
H    -1.2432682   -5.4950589   -1.5880367 
H    -1.2613916   -6.3096624   -3.9278807 
C    -6.4056483    1.9056704    0.5682580 
C    -5.2187879    0.9230786    0.5015796 
C    -4.9572385    0.5710715   -0.9845879 
C    -5.6011252   -0.3676362    1.2684959 
C    -3.9362685    1.5104084    1.1251883 
C    -2.7512806    0.7437896    1.1344935 
C    -3.8856362    2.7891999    1.7045174 
C    -2.7131278    3.3335002    2.2800330 
C    -2.7414070    4.7463313    2.8928758 
C    -3.7558840    4.7657826    4.0648419 
C    -3.1690391    5.7650469    1.8052103 
C    -1.3568682    5.1682686    3.4288060 
C    -1.5532675    2.5487154    2.2640241 
C    -1.5767972    1.2581394    1.6965312 
C     0.2637116   -0.1998067    3.4459273 
C     1.3517816   -1.0486099    3.7245754 
C     1.6790478   -1.3977442    5.0452436 
C     2.9301385   -2.2595213    5.3128817 
C     3.0236449   -2.7081583    6.7861791 
C     2.9124821   -3.5257322    4.4194020 
C     4.1823990   -1.4101339    4.9675200 
C     0.8554757   -0.8996326    6.0780264 
C    -0.2561062   -0.0716113    5.8287527 
C    -0.5396351    0.2723545    4.4923617 
C    -1.1368489    0.5134652    6.9509990 
C    -2.6272245    0.1843884    6.6814473 
C    -0.9494398    2.0545036    6.9618410 
C    -0.7572054   -0.0414257    8.3392098 
C     1.3057541    1.4241693    1.2567786 
C     2.4884889    1.4282529    2.0221332 
C     3.5594861    2.2665412    1.6924951 
C     3.4523776    3.1405737    0.6093899 
C     1.1837195    2.3037637    0.1443868 
C     2.2626205    3.1778176   -0.1310414 
C    -0.0336593    2.4153573   -0.7134824 
C    -0.7060564    3.6591664   -0.7534623 
O    -0.2356332    4.7077499    0.0147372 
C     0.4432690    5.7395842   -0.7307091 
C     1.9415020    5.4436460   -0.7752107 
O     2.1560572    4.0744363   -1.1779050 
C    -1.8579063    3.8493176   -1.5303281 
C    -2.3305755    2.8065995   -2.3294016 
C    -1.6602502    1.5780387   -2.3444944 
C    -0.5202009    1.3694462   -1.5440941 
C     2.0866087    0.1134259   -1.8803736 
C     2.4793972    1.1467798   -2.7543465 
C     3.8391413    1.4216906   -2.9563920 
C     4.3176313    2.5386368   -3.9033736 
C     5.1824716    1.9115458   -5.0266762 
C     5.1573670    3.5627042   -3.0971150 
C     3.1351874    3.2902864   -4.5508926 
C     4.7863424    0.6402320   -2.2521416 
C     4.4233848   -0.3852114   -1.3628654 
C     3.0477892   -0.6336575   -1.1884973 
C     5.4438144   -1.2471660   -0.5938684 
C     6.8948172   -0.7802728   -0.8284472 
C     5.3095740   -2.7165878   -1.0725186 
C     5.1443560   -1.1735507    0.9257138 
C    -0.3413097   -1.0263845   -3.1233117 
C    -1.5601286   -1.7173223   -3.0065215 
C    -2.2280995   -2.1926033   -4.1480783 
C    -3.6303251   -2.8260347   -4.0587163 
C    -3.7570109   -4.0330769   -5.0187015 
C    -4.6615619   -1.7380234   -4.4613762 
C    -3.9508932   -3.3102047   -2.6263159 
C    -1.6023210   -1.9923721   -5.3944662 
C    -0.3581567   -1.3444362   -5.5383669 
C     0.2632755   -0.8511233   -4.3782242 
C     0.2617835   -1.1687477   -6.9386488 
C    -0.6663449   -0.2576856   -7.7834031 
C     1.6612156   -0.5197248   -6.8739050 
C     0.3973105   -2.5508074   -7.6270112 
H    -7.2939031    1.4462727    0.1013122 
H    -6.6697064    2.1579155    1.6102400 
H    -6.1902981    2.8433711    0.0261830 
H    -5.8449397    0.0818153   -1.4236761 
H    -4.7363117    1.4790145   -1.5692287 
H    -4.1001783   -0.1149240   -1.0985173 
H    -6.5345747   -0.7943108    0.8596908 
H    -5.7526469   -0.1604495    2.3420546 
H    -4.8111841   -1.1313721    1.1811709 
H    -2.7286383   -0.2583780    0.6915323 
H    -4.7910236    3.4010046    1.7086734 
H    -3.7909714    5.7700552    4.5235610 
H    -4.7761420    4.5132519    3.7274196 
H    -3.4656413    4.0396725    4.8452323 
H    -3.2070444    6.7833539    2.2317701 
H    -4.1681958    5.5357328    1.3958708 
H    -2.4412344    5.7586950    0.9761565 
H    -1.0097759    4.5002341    4.2372574 
H    -1.4169165    6.1885598    3.8456580 
H    -0.6021163    5.1698698    2.6236461 
H    -0.6146709    2.9328200    2.6699708 
H     1.9561749   -1.4296733    2.8933897 
H     3.1249041   -1.8489487    7.4716348 
H     3.9124601   -3.3473458    6.9249000 
H     2.1368296   -3.2924428    7.0892309 
H     2.9113156   -3.2742726    3.3438021 
H     2.0262220   -4.1503130    4.6289589 
H     3.8115925   -4.1373635    4.6107851 
H     5.1048185   -1.9883734    5.1554992 
H     4.1819470   -1.1085018    3.9049809 
H     4.2159223   -0.4945121    5.5833716 
H     1.0905440   -1.1657164    7.1089784 
H    -1.3942022    0.9146677    4.2649968 
H    -2.9698417    0.5843586    5.7115717 
H    -3.2593915    0.6293103    7.4702860 
H    -2.7959147   -0.9050346    6.6737111 
H     0.1072916    2.3214777    7.1380804 
H    -1.2599258    2.5048391    6.0024120 
H    -1.5599789    2.5082373    7.7629515 
H    -0.8673438   -1.1398066    8.3813784 
H     0.2802471    0.2156780    8.6161190 
H    -1.4213648    0.3917955    9.1066461 
H     2.5756578    0.7823310    2.8977135 
H     4.4738635    2.2425472    2.2939855 
H     4.2720401    3.8095929    0.3316278 
H     0.0248208    5.7939803   -1.7520723 
H     0.2518905    6.6956795   -0.2140489 
H     2.4036139    5.6141691    0.2139739 
H     2.4424585    6.0857789   -1.5198927 
H    -2.3623560    4.8195753   -1.5024096 
H    -3.2190370    2.9506222   -2.9522593 
H    -2.0245875    0.7777630   -2.9927609 
H     1.7110077    1.7486932   -3.2445724 
H     4.5967795    1.1751843   -5.6053722 
H     6.0711669    1.3976514   -4.6209396 
H     5.5342368    2.6957380   -5.7205798 
H     4.5388133    4.0159604   -2.3039911 
H     6.0389856    3.0929877   -2.6276508 
H     5.5196942    4.3659463   -3.7633139 
H     2.5148413    2.6188827   -5.1711958 
H     3.5203802    4.0876547   -5.2097552 
H     2.4926811    3.7575674   -3.7849689 
H     5.8469114    0.8562077   -2.4036074 
H     2.7083320   -1.4043452   -0.4876673 
H     7.5884373   -1.4123713   -0.2477338 
H     7.1833593   -0.8601160   -1.8911270 
H     7.0418498    0.2655193   -0.5053270 
H     4.2986976   -3.1165549   -0.8761070 
H     6.0349256   -3.3613132   -0.5449671 
H     5.5001930   -2.7959300   -2.1569789 
H     5.8603933   -1.7993127    1.4874108 
H     5.2248189   -0.1365167    1.2923587 
H     4.1274825   -1.5338110    1.1621475 
H    -1.9893777   -1.8588179   -2.0091414 
H    -3.6504009   -3.7356258   -6.0755951 
H    -4.7520011   -4.4985325   -4.9090546 
H    -2.9898586   -4.7936656   -4.7973689 
H    -4.4797142   -1.3825344   -5.4906257 
H    -5.6890734   -2.1416829   -4.4121815 
H    -4.5981734   -0.8684384   -3.7834154 
H    -3.1928636   -4.0292652   -2.2703020 
H    -4.9332180   -3.8127921   -2.6141605 
H    -4.0042688   -2.4742861   -1.9070619 
H    -2.1067177   -2.3550939   -6.2950643 
H     1.2223004   -0.3344622   -4.4412591 
H    -0.2455883   -0.1139791   -8.7946229 
H    -0.7772009    0.7335812   -7.3097494 
H    -1.6729618   -0.6966115   -7.8950887 
H     2.3635145   -1.1220737   -6.2702019 
H     2.0789471   -0.4359291   -7.8917777 
H     1.6235675    0.4977328   -6.4460160 
H     0.8304998   -2.4320364   -8.6358879 
H    -0.5789682   -3.0529200   -7.7382190 
H     1.0571469   -3.2160363   -7.0443218 
