197
Energy =
C    -1.8864537    2.5793406    1.9142945 
C    -2.9692208    1.6756368    1.6754654 
C    -2.9684976    0.3903673    2.2666786 
H    -3.7163648    1.9172647    0.9089511 
Pd   -1.1184795    0.7199575    0.9699404 
P    -0.9439933   -1.3702261   -0.0274785 
P     1.0642817    1.2911842    0.4199410 
H    -1.3873354    2.5104492    2.8911068 
H    -2.3189791    0.2588575    3.1470669 
C    -1.3892412    6.3920833   -0.0266157 
C    -2.1179565    5.3749352   -0.6658968 
C    -2.2801937    4.1286583   -0.0525906 
C    -1.7279578    3.8741431    1.2249545 
C    -0.9943617    4.9050878    1.8521485 
C    -0.8266613    6.1494625    1.2347232 
H    -1.2605179    7.3649999   -0.5119920 
H    -2.5573333    5.5549546   -1.6521688 
H    -2.8300639    3.3390075   -0.5770630 
H    -0.5501860    4.7235708    2.8347033 
H    -0.2556345    6.9317061    1.7456091 
C    -5.8314902   -2.7880777    1.8620955 
C    -6.0078134   -1.6050769    1.1266308 
C    -5.0883906   -0.5578525    1.2395541 
C    -3.9669711   -0.6734956    2.0925334 
C    -3.7987320   -1.8764927    2.8174175 
C    -4.7189402   -2.9225275    2.7055495 
H    -6.5604424   -3.6003854    1.7790484 
H    -6.8687349   -1.4999127    0.4593359 
H    -5.2486015    0.3579178    0.6634798 
H    -2.9326485   -1.9885069    3.4744462 
H    -4.5691737   -3.8423978    3.2802476 
C    -0.9609432   -2.7396072    5.3655172 
C     0.4048902   -3.2011669    4.7979630 
C     0.8603271   -4.4474335    5.5853992 
C     1.4483339   -2.0749743    5.0107279 
C     0.2732843   -3.4840125    3.2865790 
C    -0.2278841   -2.4846249    2.4270556 
C     0.6615932   -4.7023608    2.7028903 
C     0.5833170   -4.9550243    1.3135030 
C     1.0721941   -6.3017282    0.7488115 
C     0.1976987   -7.4418973    1.3296560 
C     0.9851089   -6.3425114   -0.7916492 
C     2.5542126   -6.5117262    1.1547137 
C     0.0698203   -3.9425683    0.4917605 
C    -0.3428390   -2.7159514    1.0490937 
C    -2.5704340   -1.8239188   -0.7341600 
C    -3.2668863   -0.7946504   -1.4000671 
C    -4.4484889   -1.0691157   -2.1050935 
C    -5.2179642    0.0206606   -2.8776712 
C    -6.7162038   -0.0024329   -2.4836106 
C    -5.0753943   -0.2630381   -4.3958575 
C    -4.6702382    1.4344227   -2.5850707 
C    -4.9084835   -2.4029491   -2.1070420 
C    -4.2607441   -3.4421601   -1.4118617 
C    -3.0752199   -3.1299954   -0.7171574 
C    -4.7856370   -4.8896698   -1.4831134 
C    -6.3322144   -4.9244725   -1.4314580 
C    -4.2420368   -5.7494374   -0.3187044 
C    -4.3055040   -5.4994853   -2.8271054 
C     0.1681321   -1.4519714   -1.5058622 
C    -0.3870572   -1.6043036   -2.7912603 
C     0.4345970   -1.6777297   -3.9223298 
C     1.8220307   -1.6227192   -3.7809414 
C     1.5784139   -1.3851974   -1.3446579 
C     2.3835496   -1.5067561   -2.5009258 
C     2.2656589   -1.2698136   -0.0232446 
C     3.1290695   -2.3249596    0.3570635 
O     3.2746560   -3.4144222   -0.4813218 
C     4.5332244   -3.4616519   -1.1861069 
C     4.3930840   -2.7717332   -2.5425989 
O     3.7600399   -1.4862861   -2.3740102 
C     3.8345281   -2.3020298    1.5687095 
C     3.7424818   -1.1812036    2.3956948 
C     2.9309408   -0.1025934    2.0248113 
C     2.1799783   -0.1356323    0.8338645 
C     1.4555473    1.6974327   -1.3152709 
C     0.4281907    2.0267476   -2.2073959 
C     0.7275401    2.3828099   -3.5405671 
C    -0.4153510    2.7180698   -4.5203473 
C     0.1071212    3.2771935   -5.8600683 
C    -1.2180410    1.4233430   -4.8050140 
C    -1.3520818    3.7740434   -3.8841258 
C     2.0793370    2.3914023   -3.9230718 
C     3.1357970    2.0546494   -3.0446871 
C     2.8031291    1.7046882   -1.7303103 
C     4.5916710    2.0777397   -3.5465616 
C     4.9417464    3.5128649   -4.0163007 
C     4.7355188    1.0838729   -4.7279226 
C     5.5868178    1.6607889   -2.4429127 
C     1.6925133    2.6979529    1.4156530 
C     1.4577257    2.6858827    2.8081130 
C     1.9242832    3.7253730    3.6237637 
C     1.7270534    3.7234988    5.1524832 
C     0.9805519    5.0111422    5.5856146 
C     0.9084128    2.5046480    5.6295648 
C     3.1194018    3.6771508    5.8338380 
C     2.6040428    4.7983989    2.9987099 
C     2.8246024    4.8542114    1.6133341 
C     2.3569565    3.7790747    0.8273339 
C     3.5863729    6.0028666    0.9236034 
C     2.7336867    6.5775504   -0.2365735 
C     4.9114341    5.4335493    0.3496181 
C     3.9200513    7.1488691    1.9003906 
H    -0.8879245   -2.5853256    6.4563829 
H    -1.2836151   -1.7816500    4.9211447 
H    -1.7460104   -3.4921107    5.1753179 
H     0.9268806   -4.2040863    6.6597776 
H     0.1474007   -5.2832241    5.4731932 
H     1.8574019   -4.7942621    5.2621993 
H     1.5274089   -1.8232200    6.0836529 
H     1.1737183   -1.1571467    4.4613007 
H     2.4412527   -2.3934205    4.6525922 
H    -0.5108861   -1.5020300    2.8203978 
H     1.0611551   -5.4902230    3.3459711 
H    -0.8614834   -7.3056146    1.0469845 
H     0.5360533   -8.4194622    0.9421752 
H     0.2537658   -7.4774493    2.4315884 
H     1.3626782   -7.3125581   -1.1585433 
H     1.5948176   -5.5422536   -1.2461719 
H    -0.0558956   -6.2370859   -1.1469103 
H     2.6782703   -6.5520787    2.2507894 
H     2.9302012   -7.4644458    0.7410233 
H     3.1731996   -5.6857712    0.7648647 
H     0.0160930   -4.0773753   -0.5907618 
H    -2.8574236    0.2208125   -1.3669271 
H    -7.2689842    0.7673467   -3.0501414 
H    -6.8442689    0.2086143   -1.4075047 
H    -7.1870792   -0.9763219   -2.6990692 
H    -4.0135029   -0.2459891   -4.6978306 
H    -5.6155531    0.5004745   -4.9840058 
H    -5.4889981   -1.2519011   -4.6591572 
H    -5.2665514    2.1857852   -3.1303591 
H    -3.6221132    1.5495697   -2.9076508 
H    -4.7310747    1.6767499   -1.5086104 
H    -5.8176216   -2.6379931   -2.6679857 
H    -2.5322995   -3.9041939   -0.1714377 
H    -6.6843142   -5.9706279   -1.4342110 
H    -6.7094142   -4.4348669   -0.5175955 
H    -6.7902475   -4.4250842   -2.3020863 
H    -4.4828156   -5.2974699    0.6592720 
H    -4.6951718   -6.7549224   -0.3562503 
H    -3.1473383   -5.8831444   -0.3757828 
H    -4.6926148   -4.9216261   -3.6848403 
H    -4.6576608   -6.5421595   -2.9260338 
H    -3.2025117   -5.4984864   -2.8851352 
H    -1.4698908   -1.6764226   -2.9131447 
H    -0.0138713   -1.7872824   -4.9146293 
H     2.4862887   -1.6797979   -4.6482768 
H     4.7943488   -4.5258296   -1.3170377 
H     5.3159186   -2.9729941   -0.5780520 
H     5.3854657   -2.5911333   -2.9899737 
H     3.7948271   -3.3901535   -3.2360927 
H     4.4617039   -3.1584142    1.8338338 
H     4.3101285   -1.1375759    3.3305132 
H     2.8994333    0.7814074    2.6654033 
H    -0.6082844    1.9961868   -1.8536188 
H     0.7012024    4.1961770   -5.7123860 
H    -0.7454820    3.5279624   -6.5146345 
H     0.7306431    2.5420392   -6.3983751 
H    -2.0901504    1.6427805   -5.4468845 
H    -1.5830024    0.9611376   -3.8718669 
H    -0.5859999    0.6793860   -5.3181914 
H    -0.7972451    4.6943727   -3.6325157 
H    -2.1631568    4.0359826   -4.5866376 
H    -1.8193586    3.4003008   -2.9584966 
H     2.3326090    2.6634585   -4.9506147 
H     3.5788138    1.4185628   -1.0162627 
H     5.9847179    3.5526194   -4.3778234 
H     4.2868609    3.8458091   -4.8402209 
H     4.8366450    4.2329815   -3.1852713 
H     4.0646985    1.3413611   -5.5658993 
H     5.7716098    1.0955176   -5.1110096 
H     4.4973342    0.0606792   -4.3909093 
H     5.5560619    2.3520728   -1.5817065 
H     6.6144083    1.6790552   -2.8455587 
H     5.3774564    0.6386384   -2.0831826 
H     0.9049277    1.8480137    3.2428220 
H    -0.0214390    5.0623472    5.1238503 
H     0.8518501    5.0263163    6.6823326 
H     1.5341161    5.9220250    5.3008010 
H    -0.1022947    2.4913983    5.1819937 
H     0.7844673    2.5459403    6.7252335 
H     1.4094066    1.5501246    5.3876646 
H     3.7350978    4.5502098    5.5575308 
H     3.0084947    3.6745284    6.9328483 
H     3.6693602    2.7661359    5.5384956 
H     2.9671399    5.6164111    3.6258666 
H     2.5143338    3.7895068   -0.2540232 
H     1.7745327    6.9737737    0.1365602 
H     2.5077914    5.8139558   -1.0008670 
H     3.2801594    7.3981176   -0.7342815 
H     4.7197862    4.6345299   -0.3883607 
H     5.4839130    6.2320124   -0.1555168 
H     5.5398736    5.0121000    1.1535764 
H     4.5809824    6.8128958    2.7186340 
H     4.4456058    7.9557009    1.3613747 
H     3.0063030    7.5816838    2.3454224 
