197
Energy =
C    -0.4825525   -3.2228153    1.7924568 
C    -0.6454701   -3.7394883    0.4721805 
C     0.4186181   -3.7041549   -0.4577555 
H    -1.6492633   -4.0124174    0.1205170 
Pd   -0.0831192   -1.6116973    0.2998003 
P     0.3246226   -0.2992063   -1.5886700 
P    -0.0817377    0.2479758    1.6976629 
H     0.5182651   -3.3018834    2.2387550 
H     1.4346487   -3.5672076   -0.0533785 
C    -3.6629688   -2.9344247    4.6818920 
C    -3.9535885   -2.8147597    3.3123229 
C    -2.9293292   -2.8969174    2.3636851 
C    -1.5888347   -3.1061533    2.7628693 
C    -1.3124395   -3.2176550    4.1426506 
C    -2.3375899   -3.1375118    5.0915949 
H    -4.4669197   -2.8700312    5.4225373 
H    -4.9854973   -2.6529962    2.9852376 
H    -3.1676340   -2.7836438    1.2996152 
H    -0.2809674   -3.3715997    4.4705747 
H    -2.0968009   -3.2371829    6.1543603 
C     0.3251771   -5.1678783   -4.4976790 
C     1.3274521   -4.2777096   -4.0822764 
C     1.3534620   -3.8143821   -2.7640307 
C     0.3640637   -4.2143309   -1.8370705 
C    -0.6321387   -5.1210843   -2.2637556 
C    -0.6448855   -5.5978834   -3.5791958 
H     0.3060154   -5.5330723   -5.5295091 
H     2.0914949   -3.9394555   -4.7894784 
H     2.1312936   -3.1097522   -2.4504424 
H    -1.3801108   -5.4859443   -1.5525874 
H    -1.4088603   -6.3194742   -3.8860357 
C    -5.6158501   -0.2762100    1.1280898 
C    -5.2009537    1.0182461    0.3851028 
C    -6.3763216    2.0152825    0.4428720 
C    -4.9173711    0.6805702   -1.1001313 
C    -3.9218384    1.5825409    1.0370993 
C    -2.7515436    0.7945368    1.0773829 
C    -3.8601325    2.8638177    1.6095982 
C    -2.6912965    3.3898943    2.2084607 
C    -2.7077048    4.8091448    2.8070447 
C    -3.0521571    5.8268739    1.6890984 
C    -1.3386071    5.1952967    3.4054571 
C    -3.7770648    4.8752946    3.9273185 
C    -1.5457352    2.5840061    2.2229359 
C    -1.5800376    1.2902332    1.6630463 
C     0.2157662   -0.1824062    3.4564694 
C    -0.5780991    0.3359604    4.4942031 
C    -0.2941163    0.0217497    5.8336985 
C    -1.1118024    0.6135477    6.9994070 
C    -0.1673338    1.4702095    7.8829188 
C    -2.2626461    1.5133864    6.4995425 
C    -1.7220425   -0.5290711    7.8493450 
C     0.8029782   -0.8275093    6.0989037 
C     1.6092816   -1.3715336    5.0822176 
C     1.2823439   -1.0476636    3.7514465 
C     2.8452800   -2.2492924    5.3662134 
C     2.9498139   -2.6428171    6.8542643 
C     4.1103668   -1.4406200    4.9730654 
C     2.7887654   -3.5474941    4.5218886 
C     1.3155291    1.3954471    1.2644883 
C     2.4912833    1.3748309    2.0405528 
C     3.5872652    2.1815887    1.7150050 
C     3.5131497    3.0503075    0.6249916 
C     1.2272842    2.2694878    0.1445167 
C     2.3314965    3.1133458   -0.1263838 
C     0.0237630    2.4063670   -0.7291163 
C    -0.6129904    3.6679365   -0.7878759 
O    -0.1261090    4.7073833   -0.0173322 
C     0.5872777    5.7190611   -0.7581603 
C     2.0774719    5.3827736   -0.7865675 
O     2.2584361    4.0059688   -1.1796100 
C    -1.7449276    3.8856171   -1.5865809 
C    -2.2322223    2.8516191   -2.3880729 
C    -1.5973910    1.6042381   -2.3829533 
C    -0.4781444    1.3687307   -1.5610145 
C     2.0966088    0.0441309   -1.8628781 
C     2.5227610    1.0641738   -2.7368941 
C     3.8906367    1.3032613   -2.9292444 
C     4.4050655    2.4039913   -3.8764125 
C     5.2657484    3.4083980   -3.0675290 
C     3.2475365    3.1842533   -4.5349848 
C     5.2610574    1.7503932   -4.9913679 
C     4.8119610    0.4999555   -2.2152945 
C     4.4157162   -0.5132456   -1.3263058 
C     3.0328711   -0.7254599   -1.1617176 
C     5.4070672   -1.3980278   -0.5454318 
C     6.8724459   -0.9786394   -0.7801647 
C     5.2295731   -2.8678667   -1.0084925 
C     5.1047329   -1.2981872    0.9720897 
C    -0.3477524   -1.0418310   -3.1208353 
C    -1.5825716   -1.7053945   -3.0123145 
C    -2.2528663   -2.1660091   -4.1586980 
C    -3.6699456   -2.7674206   -4.0822554 
C    -3.8070429   -3.9872496   -5.0245550 
C    -4.6705796   -1.6647765   -4.5206701 
C    -4.0245881   -3.2209025   -2.6480831 
C    -1.6138254   -1.9802709   -5.4005774 
C    -0.3544300   -1.3608503   -5.5360195 
C     0.2695721   -0.8810797   -4.3715604 
C     0.2797304   -1.2028530   -6.9320197 
C     0.4108603   -2.5934823   -7.6040601 
C    -0.6328264   -0.2939291   -7.7957406 
C     1.6830518   -0.5631764   -6.8606740 
H    -6.5481616   -0.6828314    0.6971563 
H    -4.8372042   -1.0518811    1.0433016 
H    -5.7834015   -0.0802247    2.2013364 
H    -7.2637629    1.5702094   -0.0392472 
H    -6.6508167    2.2637113    1.4830865 
H    -6.1425739    2.9538734   -0.0898834 
H    -5.8024612    0.2064403   -1.5605388 
H    -4.0657003   -0.0133010   -1.2064471 
H    -4.6761380    1.5927248   -1.6698860 
H    -2.7372265   -0.2097539    0.6389883 
H    -4.7534883    3.4926837    1.5891180 
H    -3.0841482    6.8506288    2.1031751 
H    -2.2846233    5.7913599    0.8977984 
H    -4.0356022    5.6182706    1.2331012 
H    -1.3896027    6.2180297    3.8174685 
H    -0.5471793    5.1751225    2.6364315 
H    -1.0478427    4.5191770    4.2295806 
H    -4.7879355    4.6556153    3.5422195 
H    -3.7995575    5.8855278    4.3735242 
H    -3.5524222    4.1484604    4.7278584 
H    -0.6093122    2.9539217    2.6467132 
H    -1.4172995    0.9873347    4.2469554 
H     0.6482685    0.8651307    8.3152864 
H    -0.7321001    1.9205058    8.7186053 
H     0.2880901    2.2853505    7.2934142 
H    -2.9727112    0.9540761    5.8649648 
H    -1.8869396    2.3764265    5.9215956 
H    -2.8241334    1.9098217    7.3628942 
H    -2.2645617   -0.1101113    8.7153506 
H    -2.4341201   -1.1201938    7.2494102 
H    -0.9469011   -1.2126852    8.2368550 
H     1.0341787   -1.0655115    7.1400717 
H     1.8764380   -1.4611192    2.9282177 
H     3.0725877   -1.7594586    7.5046363 
H     3.8302847   -3.2902388    7.0072079 
H     2.0579162   -3.2011737    7.1897169 
H     4.1025835   -1.1776442    3.9004854 
H     4.1719280   -0.5043033    5.5546529 
H     5.0227128   -2.0317171    5.1699316 
H     1.8955370   -4.1471857    4.7704002 
H     2.7723859   -3.3363320    3.4377587 
H     3.6799035   -4.1683114    4.7207630 
H     2.5536647    0.7339041    2.9217415 
H     4.4951287    2.1372924    2.3251448 
H     4.3525295    3.6956759    0.3501438 
H     0.1809394    5.7820121   -1.7838997 
H     0.4160530    6.6811711   -0.2456744 
H     2.5346067    5.5462924    0.2060818 
H     2.6027234    6.0068442   -1.5298498 
H    -2.2223267    4.8697836   -1.5739007 
H    -3.1046600    3.0167708   -3.0280947 
H    -1.9728985    0.8102129   -3.0324209 
H     1.7739931    1.6841780   -3.2348989 
H     6.1316781    2.9174293   -2.5906496 
H     4.6538394    3.8800557   -2.2800201 
H     5.6533277    4.1999145   -3.7335657 
H     2.6144867    2.5272873   -5.1578389 
H     2.6119010    3.6705843   -3.7752396 
H     3.6583290    3.9691123   -5.1934181 
H     6.1321180    1.2133243   -4.5774946 
H     5.6395567    2.5228346   -5.6844017 
H     4.6597717    1.0289316   -5.5728271 
H     5.8788987    0.6882279   -2.3588490 
H     2.6682417   -1.4850038   -0.4613091 
H     7.5446715   -1.6279908   -0.1933320 
H     7.1601832   -1.0752232   -1.8416673 
H     7.0519098    0.0642519   -0.4641812 
H     4.2069817   -3.2355762   -0.8098736 
H     5.9344750   -3.5282048   -0.4725916 
H     5.4195653   -2.9647191   -2.0916610 
H     5.7974977   -1.9410895    1.5435938 
H     5.2181823   -0.2603772    1.3278909 
H     4.0754349   -1.6217231    1.2077463 
H    -2.0219200   -1.8363327   -2.0179200 
H    -3.6650095   -3.7118117   -6.0832399 
H    -4.8174586   -4.4224078   -4.9324439 
H    -3.0678407   -4.7648959   -4.7706026 
H    -4.4673877   -1.3344069   -5.5542811 
H    -5.7075194   -2.0442777   -4.4776421 
H    -4.5963651   -0.7832188   -3.8597164 
H    -3.2891112   -3.9512266   -2.2682033 
H    -5.0180671   -3.7011969   -2.6442912 
H    -4.0705683   -2.3723319   -1.9433686 
H    -2.1200688   -2.3319769   -6.3046277 
H     1.2401472   -0.3856566   -4.4280468 
H     0.8483083   -2.4888524   -8.6127016 
H    -0.5678511   -3.0915776   -7.7122262 
H     1.0650930   -3.2554186   -7.0113370 
H    -0.7428050    0.7024050   -7.3326304 
H    -0.1991668   -0.1623019   -8.8031075 
H    -1.6408759   -0.7271449   -7.9160214 
H     2.1081041   -0.4866211   -7.8760947 
H     2.3776132   -1.1674472   -6.2500234 
H     1.6489718    0.4562463   -6.4371891 
