206
Energy =
C    -0.8555900   -3.7312544    0.6289384 
C    -2.1782067   -3.2638464    0.4702706 
C    -2.6257765   -2.6700459   -0.7498613 
H    -2.8096411   -3.1904716    1.3650031 
Pd   -0.8869680   -1.5258182    0.0240915 
P    -0.9135491    0.2525446   -1.4872915 
P     0.8464940   -0.6181625    1.2883252 
H    -0.2659299   -3.9193396   -0.2830103 
H    -2.2045419   -3.0505853   -1.6895349 
C     0.7520215   -5.5048461    4.2004730 
C     1.6057859   -4.9701585    3.2230396 
C     1.0757388   -4.4014871    2.0613436 
C    -0.3220262   -4.3379848    1.8603664 
C    -1.1700815   -4.8887217    2.8477230 
C    -0.6366028   -5.4701611    4.0031067 
H     1.1662538   -5.9561124    5.1076335 
H     2.6909158   -4.9925269    3.3680910 
H     1.7477422   -3.9751571    1.3097031 
H    -2.2536267   -4.8984147    2.6928379 
H    -1.3073422   -5.9118867    4.7471769 
C    -6.3879344   -0.6101694   -1.1625255 
C    -5.8312681   -0.8011477    0.1134405 
C    -4.6101326   -1.4651563    0.2566258 
C    -3.9194325   -1.9700048   -0.8713509 
C    -4.4928177   -1.7747450   -2.1476416 
C    -5.7121542   -1.1004304   -2.2889742 
H    -7.3422431   -0.0855022   -1.2748241 
H    -6.3516842   -0.4269901    1.0011753 
H    -4.1813032   -1.5831404    1.2576204 
H    -3.9728021   -2.1539209   -3.0340915 
H    -6.1391990   -0.9614969   -3.2869476 
C    -2.2107234   -2.9282639    6.5681302 
C    -2.1160587   -1.7690607    5.5476236 
C    -3.2162130   -1.9755145    4.4822623 
C    -2.3692518   -0.4204275    6.2726514 
C    -0.7126755   -1.7022741    4.9133623 
C    -0.5320853   -1.3691889    3.5600946 
C     0.4447941   -1.8985460    5.6916621 
C     1.7506753   -1.7795485    5.1739318 
C     2.9657314   -2.0095466    6.0946340 
C     2.8905737   -3.4272340    6.7159637 
C     4.3006852   -1.8867817    5.3299802 
C     2.9457223   -0.9468883    7.2240008 
C     1.8920576   -1.4249611    3.8209073 
C     0.7577203   -1.2071578    3.0226405 
C     2.5300108   -0.9607104    0.6725653 
C     3.6628633   -0.3111482    1.2030996 
C     4.9491077   -0.6871631    0.7874143 
C     6.2231738   -0.0590367    1.3851682 
C     6.9813714   -1.1481223    2.1885512 
C     5.8937288    1.1135539    2.3329993 
C     7.1348285    0.4670867    0.2484408 
C     5.0612594   -1.7048479   -0.1892480 
C     3.9483230   -2.3391428   -0.7657941 
C     2.6736249   -1.9459272   -0.3133205 
C     4.0601947   -3.4277632   -1.8507184 
C     5.5258646   -3.7747741   -2.1819618 
C     3.3483905   -4.7149995   -1.3594363 
C     3.3666927   -2.9208440   -3.1404443 
C     0.6972300    1.2148257    1.4523440 
C     0.2268231    1.7736124    2.6584609 
C     0.0400439    3.1554188    2.7594421 
C     0.3130297    3.9971156    1.6761394 
C     0.9792610    2.0473951    0.3434977 
C     0.7874228    3.4487001    0.4714187 
C     1.5448782    1.5498521   -0.9464193 
C     2.8804062    1.9220686   -1.2537048 
O     3.5295824    2.6459567   -0.2951139 
C     4.6584994    3.4518310   -0.6856041 
C     4.2572107    4.6647835   -1.5410519 
C     3.9075063    5.9354389   -0.7456067 
C     2.6976394    5.8621131    0.2032138 
C     1.3486348    5.5923062   -0.4826531 
O     1.0758845    4.1870224   -0.6390620 
C     3.4687018    1.5363550   -2.4709059 
C     2.7229504    0.7980279   -3.3945348 
C     1.4004588    0.4352195   -3.1212519 
C     0.8061473    0.8039985   -1.8973251 
C    -1.8203991    1.7519371   -0.9784722 
C    -2.5707915    1.7106341    0.2085909 
C    -3.2981221    2.8376662    0.6286101 
C    -4.1241354    2.8531453    1.9292649 
C    -3.7464884    4.0925937    2.7785569 
C    -3.8699197    1.5906824    2.7797323 
C    -5.6285758    2.9176402    1.5594244 
C    -3.2751969    3.9733692   -0.2039468 
C    -2.5332220    4.0447637   -1.4003484 
C    -1.7779043    2.9173689   -1.7668217 
C    -2.6079141    5.3108378   -2.2768539 
C    -1.6006503    5.2574644   -3.4449323 
C    -4.0431084    5.4191378   -2.8562038 
C    -2.3106615    6.5726827   -1.4294199 
C    -1.6075737   -0.2989677   -3.0961212 
C    -1.1411303   -1.5269093   -3.5975975 
C    -1.6198779   -2.0485852   -4.8133381 
C    -1.0518625   -3.3765824   -5.3511202 
C     0.3948362   -3.1154614   -5.8461342 
C    -1.0279209   -4.4402469   -4.2238977 
C    -1.8879588   -3.9330322   -6.5230081 
C    -2.5862369   -1.2945082   -5.5054472 
C    -3.0855539   -0.0652394   -5.0247680 
C    -2.5877978    0.4201661   -3.8014155 
C    -4.1130907    0.7254469   -5.8588102 
C    -5.2750031   -0.1955496   -6.3071528 
C    -3.3880261    1.2809107   -7.1134777 
C    -4.7061585    1.9090691   -5.0654804 
H    -1.9683635   -3.8927430    6.0906336 
H    -1.5281267   -2.7869637    7.4230715 
H    -3.2351470   -2.9884766    6.9751668 
H    -3.0341313   -2.8946610    3.8989248 
H    -3.2820671   -1.1246378    3.7834058 
H    -4.1994602   -2.0712046    4.9738853 
H    -3.3659232   -0.4183122    6.7500291 
H    -1.6109136   -0.2443825    7.0554757 
H    -2.3256285    0.4212635    5.5587082 
H    -1.3962972   -1.2126288    2.9055706 
H     0.3260227   -2.1553430    6.7484605 
H     3.7442827   -3.5894954    7.3977124 
H     2.9242846   -4.2002018    5.9297532 
H     1.9635433   -3.5732192    7.2963344 
H     4.3683945   -2.6202838    4.5067461 
H     5.1430354   -2.0747052    6.0175794 
H     4.4379803   -0.8770189    4.9048594 
H     2.9939881    0.0726285    6.8026625 
H     2.0292031   -1.0200476    7.8347422 
H     3.8112440   -1.0859548    7.8963022 
H     2.8839291   -1.3236289    3.3780869 
H     3.5211092    0.4910223    1.9306317 
H     7.9008365   -0.7260597    2.6322140 
H     7.2732988   -1.9958086    1.5445999 
H     6.3516739   -1.5411525    3.0054830 
H     6.8285236    1.5682382    2.7034430 
H     5.3085476    1.8954435    1.8196202 
H     5.3183614    0.7771630    3.2133396 
H     6.6084320    1.2243446   -0.3568499 
H     7.4602091   -0.3417165   -0.4277068 
H     8.0420507    0.9325344    0.6725253 
H     6.0623221   -2.0031680   -0.5102742 
H     1.7689936   -2.3995485   -0.7341618 
H     5.5561828   -4.5569737   -2.9599534 
H     6.0634582   -4.1607892   -1.2980443 
H     6.0750269   -2.8985571   -2.5691182 
H     3.7939973   -5.0791663   -0.4173540 
H     2.2713329   -4.5455165   -1.1828099 
H     3.4385497   -5.5141983   -2.1163428 
H     3.3977095   -3.6972913   -3.9255522 
H     2.3093670   -2.6636574   -2.9554087 
H     3.8656413   -2.0148911   -3.5241186 
H     0.0239965    1.1338584    3.5205732 
H    -0.3140836    3.5866611    3.7013365 
H     0.1608329    5.0738781    1.7768836 
H     5.4037960    2.8236938   -1.2060564 
H     5.1111502    3.7643355    0.2695901 
H     5.1029864    4.9039275   -2.2116331 
H     3.4198840    4.3667991   -2.1994204 
H     4.7939504    6.2331450   -0.1529935 
H     3.7382297    6.7584863   -1.4664551 
H     2.8522622    5.0940781    0.9841081 
H     2.6221244    6.8281797    0.7355572 
H     0.5189214    6.0751440    0.0639644 
H     1.3324086    5.9875068   -1.5114268 
H     4.4981900    1.8156610   -2.7054050 
H     3.1771376    0.5104549   -4.3483750 
H     0.8296654   -0.1172251   -3.8704961 
H    -2.5613597    0.7903966    0.7991365 
H    -4.3251962    4.0985251    3.7192938 
H    -2.6725235    4.0797867    3.0295561 
H    -3.9626320    5.0365180    2.2497142 
H    -4.4415923    1.6495502    3.7221424 
H    -2.8005830    1.4868892    3.0354767 
H    -4.1909911    0.6767055    2.2528789 
H    -6.2510351    2.9096517    2.4724301 
H    -5.9127950    2.0553631    0.9325173 
H    -5.8633217    3.8377209    0.9963570 
H    -3.8640813    4.8469456    0.0941313 
H    -1.1494087    2.9314168   -2.6603512 
H    -1.8218028    4.4271557   -4.1389531 
H    -1.6506493    6.1947580   -4.0254621 
H    -0.5662443    5.1336146   -3.0789824 
H    -4.2909726    4.5313402   -3.4624635 
H    -4.1315781    6.3139426   -3.4982484 
H    -4.7952848    5.5007025   -2.0523054 
H    -2.3648814    7.4758494   -2.0625473 
H    -1.3018722    6.5218054   -0.9880886 
H    -3.0360346    6.6995789   -0.6078330 
H    -0.3899262   -2.0818935   -3.0233554 
H     1.0328586   -2.7330730   -5.0309609 
H     0.3998263   -2.3705344   -6.6608141 
H     0.8483543   -4.0483838   -6.2266562 
H    -2.0418294   -4.6124521   -3.8208575 
H    -0.6473241   -5.3996671   -4.6156354 
H    -0.3691832   -4.1454629   -3.3876067 
H    -2.9401164   -4.0950184   -6.2291309 
H    -1.4730160   -4.9025076   -6.8479898 
H    -1.8705495   -3.2594010   -7.3972462 
H    -2.9695901   -1.6745884   -6.4549822 
H    -2.9681555    1.3527215   -3.3824379 
H    -6.0112698    0.3836119   -6.8915319 
H    -4.9258680   -1.0248028   -6.9453932 
H    -5.7947345   -0.6319155   -5.4370298 
H    -2.9707934    0.4652294   -7.7295075 
H    -2.5569693    1.9470965   -6.8219828 
H    -4.0919143    1.8573602   -7.7402611 
H    -5.1937271    1.5725789   -4.1334095 
H    -3.9319327    2.6501204   -4.8014637 
H    -5.4625765    2.4278436   -5.6789577 
