206
Energy =
C     0.4806700    1.5630524   -3.4230083 
C    -0.6920539    0.8209786   -3.7585868 
C    -1.9302703    1.0792210   -3.1298415 
H    -0.5978569   -0.0761898   -4.3843216 
Pd   -0.3110053    0.5667642   -1.5990825 
P    -1.5088074   -0.6887578   -0.0485930 
P     1.4509019    0.9972507   -0.1252597 
H     0.3508681    2.6156263   -3.1383299 
H    -2.0453491    2.0473242   -2.6162251 
C     4.3815912    0.5848283   -4.9596709 
C     3.4338234   -0.4337245   -4.7600611 
C     2.1681996   -0.1269666   -4.2524782 
C     1.8193213    1.2061033   -3.9307625 
C     2.7874760    2.2161184   -4.1170584 
C     4.0509911    1.9088569   -4.6366746 
H     5.3712379    0.3452095   -5.3620394 
H     3.6842061   -1.4718002   -5.0030593 
H     1.4431467   -0.9319073   -4.0879007 
H     2.5412136    3.2504077   -3.8541889 
H     4.7807166    2.7101921   -4.7903936 
C    -5.6393322   -0.9373360   -3.9400776 
C    -5.4723297   -0.1984929   -2.7584502 
C    -4.2639109    0.4565090   -2.5037564 
C    -3.1887419    0.3713698   -3.4177040 
C    -3.3728186   -0.3698932   -4.6068128 
C    -4.5879039   -1.0129368   -4.8660148 
H    -6.5878930   -1.4436392   -4.1451467 
H    -6.2871173   -0.1347614   -2.0296402 
H    -4.1369791    1.0223753   -1.5751548 
H    -2.5740010   -0.4110528   -5.3538367 
H    -4.7210272   -1.5639517   -5.8026496 
C    -4.8808650    4.6399723    1.9820274 
C    -3.8482949    3.9239712    1.0878724 
C    -4.3316485    4.0022308   -0.3836298 
C    -2.4876228    4.6540694    1.2189998 
C    -3.6611734    2.4456615    1.4811168 
C    -2.7764034    1.6424970    0.7361091 
C    -4.3366979    1.8375401    2.5524666 
C    -4.1405515    0.4853865    2.9199945 
C    -4.9528317   -0.1147242    4.0845329 
C    -4.8067709    0.7681575    5.3489431 
C    -6.4459798   -0.1633922    3.6653298 
C    -4.4904894   -1.5463433    4.4289492 
C    -3.2348045   -0.2782510    2.1674499 
C    -2.5781118    0.2931767    1.0588436 
C    -2.5567315   -1.9352395   -0.8928398 
C    -3.8044021   -2.3535327   -0.4029878 
C    -4.5068860   -3.3906948   -1.0411884 
C    -5.8683301   -3.8995843   -0.5270671 
C    -6.9213305   -3.8203122   -1.6611816 
C    -6.3817197   -3.0674259    0.6666948 
C    -5.7084167   -5.3726889   -0.0693594 
C    -3.9149758   -3.9899938   -2.1715134 
C    -2.6746073   -3.5813188   -2.6987513 
C    -2.0104986   -2.5288613   -2.0454131 
C    -2.0420018   -4.3170219   -3.8966654 
C    -0.9553479   -3.4604935   -4.5845833 
C    -1.3891291   -5.6182273   -3.3591231 
C    -3.1116261   -4.6775671   -4.9552546 
C    -0.4192580   -1.7134320    1.0304509 
C    -0.3181396   -3.1015970    0.8047371 
C     0.5491906   -3.8721841    1.5844756 
C     1.3137982   -3.2837146    2.5967458 
C     0.3564760   -1.0931506    2.0383854 
C     1.2139061   -1.9009274    2.8329589 
C     0.2790783    0.3607859    2.3783204 
C    -0.2845698    0.6998603    3.6374711 
O    -0.7880263   -0.3429584    4.3595799 
C    -0.9809043   -0.1743869    5.7768893 
C     0.3431242   -0.1272964    6.5550055 
C     0.8909644   -1.5014564    6.9796755 
C     1.2652133   -2.4835159    5.8549330 
C     2.3977233   -2.0045111    4.9310696 
O     1.9165817   -1.2479512    3.8029296 
C    -0.3182695    2.0369316    4.0716472 
C     0.2244619    3.0390600    3.2625683 
C     0.7874111    2.7298995    2.0205969 
C     0.8110804    1.3952429    1.5673496 
C     2.3488681    2.5066088   -0.6670519 
C     1.5671793    3.6349545   -0.9776332 
C     2.1562595    4.8263468   -1.4338896 
C     1.2660156    6.0524950   -1.7178154 
C     2.0444734    7.1885523   -2.4135765 
C     0.7172804    6.5779276   -0.3653839 
C     0.0818658    5.6440161   -2.6313533 
C     3.5570009    4.8428761   -1.5887626 
C     4.3671941    3.7228406   -1.3129653 
C     3.7404345    2.5494139   -0.8490404 
C     5.9017904    3.7946120   -1.4490662 
C     6.4723046    4.2690939   -0.0856130 
C     6.5026966    2.4113825   -1.7935911 
C     6.3287771    4.7939893   -2.5494997 
C     2.7005992   -0.3136588    0.0999942 
C     2.6361876   -1.4532834   -0.7225778 
C     3.6101424   -2.4572115   -0.6204147 
C     3.5792963   -3.7301455   -1.4874278 
C     4.7952542   -3.7084333   -2.4494739 
C     3.6564115   -4.9829716   -0.5789761 
C     2.2860581   -3.8185760   -2.3243153 
C     4.6659326   -2.2569576    0.2965671 
C     4.7603553   -1.1266574    1.1281693 
C     3.7345713   -0.1635020    1.0381259 
C     5.9362434   -0.9043581    2.1024396 
C     6.6036823    0.4598291    1.7936861 
C     7.0115724   -2.0043980    1.9821319 
C     5.4024283   -0.8983526    3.5552680 
H    -5.8787761    4.1731260    1.9073012 
H    -4.5731540    4.6371510    3.0425228 
H    -4.9799313    5.6928832    1.6664984 
H    -5.2827510    3.4580039   -0.5176733 
H    -3.5918896    3.5696107   -1.0804190 
H    -4.4906926    5.0545206   -0.6788349 
H    -2.5850300    5.7095381    0.9080838 
H    -2.1270503    4.6277777    2.2612091 
H    -1.7135255    4.1824883    0.5892417 
H    -2.2170780    2.0647196   -0.1067363 
H    -5.0447910    2.4323929    3.1344102 
H    -5.3811126    0.3319282    6.1851584 
H    -5.1849921    1.7914749    5.1846674 
H    -3.7504056    0.8418918    5.6573059 
H    -6.8352497    0.8453343    3.4428583 
H    -7.0585592   -0.5932457    4.4780856 
H    -6.5790403   -0.7872281    2.7646237 
H    -4.6660792   -2.2447158    3.5921496 
H    -3.4161801   -1.5748712    4.6785905 
H    -5.0573121   -1.9232589    5.2975189 
H    -3.0213489   -1.3158122    2.4329295 
H    -4.2270446   -1.8596987    0.4731457 
H    -7.8926494   -4.2072099   -1.3054478 
H    -6.6244664   -4.4155350   -2.5415821 
H    -7.0636005   -2.7766818   -1.9888021 
H    -7.3656163   -3.4473469    0.9908753 
H    -5.7003395   -3.1297884    1.5332640 
H    -6.5034501   -2.0027518    0.3983241 
H    -4.9585205   -5.4523060    0.7373416 
H    -5.3847251   -6.0227895   -0.9005923 
H    -6.6696360   -5.7626312    0.3105580 
H    -4.4463187   -4.8104179   -2.6628314 
H    -1.0465104   -2.1636766   -2.4161004 
H    -0.5596664   -3.9950210   -5.4650388 
H    -0.1023273   -3.2566381   -3.9160290 
H    -1.3692573   -2.4962641   -4.9266704 
H    -0.6093228   -5.3850609   -2.6126298 
H    -2.1409172   -6.2669319   -2.8765322 
H    -0.9208384   -6.1859427   -4.1834997 
H    -2.6319806   -5.1583861   -5.8255192 
H    -3.8621938   -5.3851891   -4.5645108 
H    -3.6401387   -3.7741461   -5.3039679 
H    -0.9279733   -3.5809145    0.0354023 
H     0.6195359   -4.9512097    1.4128245 
H     1.9782834   -3.9039248    3.2021426 
H    -1.5888920   -1.0444390    6.0735929 
H    -1.5914896    0.7266486    5.9661267 
H     1.0858817    0.4261166    5.9504325 
H     0.1811229    0.4751051    7.4678030 
H     1.7833086   -1.3379031    7.6140552 
H     0.1431469   -1.9905466    7.6333636 
H     1.5835670   -3.4332292    6.3227859 
H     0.3838612   -2.7290550    5.2335095 
H     3.0743475   -1.3093964    5.4531340 
H     3.0133800   -2.8513658    4.5781846 
H    -0.7526849    2.2988951    5.0387263 
H     0.2150792    4.0775641    3.6092845 
H     1.2247542    3.5277080    1.4168000 
H     0.4786414    3.5748127   -0.8601670 
H     1.3633678    8.0308165   -2.6244818 
H     2.8603176    7.5758309   -1.7788179 
H     2.4780831    6.8554936   -3.3730801 
H     0.0603701    7.4513291   -0.5277641 
H     1.5443541    6.8851942    0.2980603 
H     0.1304993    5.8032590    0.1578635 
H    -0.5461907    6.5237458   -2.8565313 
H    -0.5700083    4.8904635   -2.1540085 
H     0.4454992    5.2290214   -3.5883031 
H     4.0344074    5.7570481   -1.9441314 
H     4.3347370    1.6580894   -0.6402809 
H     6.2002363    3.5644924    0.7194964 
H     7.5744890    4.3346654   -0.1302374 
H     6.0760564    5.2641467    0.1825471 
H     6.3428352    1.6780317   -0.9865912 
H     7.5930326    2.5051229   -1.9377095 
H     6.0624030    2.0004076   -2.7173525 
H     7.4255887    4.7691269   -2.6695771 
H     6.0539400    5.8334118   -2.3014415 
H     5.8716194    4.5399480   -3.5220818 
H     1.8063375   -1.5371198   -1.4292521 
H     5.7488186   -3.6966578   -1.8935793 
H     4.7668494   -2.8118256   -3.0927081 
H     4.7906213   -4.6043763   -3.0960595 
H     2.8092453   -5.0027843    0.1274070 
H     3.6218234   -5.9008112   -1.1925316 
H     4.5908872   -5.0090005    0.0072279 
H     1.3874488   -3.8042473   -1.6824572 
H     2.2748721   -4.7580447   -2.9034235 
H     2.2129191   -2.9853102   -3.0438419 
H     5.4451878   -3.0204767    0.3580646 
H     3.7419407    0.7157805    1.6908455 
H     7.4418924    0.6406582    2.4896509 
H     7.0035599    0.4757981    0.7653058 
H     5.8940078    1.2984373    1.8984834 
H     7.4405140   -2.0467357    0.9654448 
H     6.6084145   -3.0016756    2.2321202 
H     7.8361039   -1.7946094    2.6851840 
H     4.5979626   -0.1561620    3.6924083 
H     4.9982004   -1.8904557    3.8157254 
H     6.2179208   -0.6630867    4.2624253 
