200
Energy =
C     0.5171070   -2.9280566    2.3128557 
C     0.7156469   -1.9049367    3.2887614 
C    -0.3327781   -1.0304317    3.6525566 
H     1.7333841   -1.6870097    3.6382117 
Pd    0.0870897   -0.9359716    1.4076915 
P    -0.3059800    1.3242728    0.9592365 
P    -0.0098958   -1.5183344   -0.8425125 
H    -0.4854800   -3.3737703    2.2517231 
H    -1.3590830   -1.3484455    3.4081825 
C     3.6654880   -5.4605024    0.8221583 
C     3.9612450   -4.1508544    1.2361706 
C     2.9461123   -3.3151400    1.7119055 
C     1.6108674   -3.7735173    1.7946016 
C     1.3294943   -5.0900079    1.3703472 
C     2.3440760   -5.9248677    0.8889852 
H     4.4620997   -6.1111279    0.4467415 
H     4.9891420   -3.7789725    1.1816341 
H     3.1873826   -2.2885197    2.0106959 
H     0.3018426   -5.4592641    1.4203123 
H     2.0977902   -6.9414555    0.5648489 
C    -0.1501861    2.1156078    6.5759588 
C     0.8419038    1.1232616    6.5587645 
C     0.8043576    0.1033833    5.6017685 
C    -0.2406819    0.0461077    4.6520742 
C    -1.2468645    1.0383541    4.6967058 
C    -1.1957716    2.0675020    5.6411297 
H    -0.1132134    2.9162854    7.3214970 
H     1.6419579    1.1363876    7.3058256 
H     1.5723448   -0.6764582    5.6184711 
H    -2.0616728    1.0117083    3.9656460 
H    -1.9754149    2.8362136    5.6467028 
C     4.1276609    2.7791573    5.4667064 
C     3.9270950    2.4898717    3.9595102 
C     4.2475962    0.9993188    3.7077257 
C     4.9106955    3.3607836    3.1336169 
C     2.4946839    2.8501817    3.5185288 
C     1.7439828    2.0104642    2.6782014 
C     1.9146098    4.0790245    3.8915575 
C     0.6348689    4.4894647    3.4652012 
C     0.0694810    5.8493771    3.9205166 
C    -1.3589892    6.0898421    3.3861457 
C     0.0255914    5.9019803    5.4688565 
C     0.9902879    6.9780428    3.3885253 
C    -0.0758789    3.6343778    2.6050971 
C     0.4816470    2.4100200    2.2050446 
C    -2.0809920    1.7436969    0.8767267 
C    -2.5214847    2.9698194    0.3406099 
C    -3.8899126    3.2716722    0.3028363 
C    -4.4218048    4.5955947   -0.2770730 
C    -5.4099633    4.2795356   -1.4290846 
C    -3.2854081    5.4747113   -0.8406769 
C    -5.1504063    5.3829409    0.8417491 
C    -4.7971934    2.3109962    0.8087243 
C    -4.3880840    1.0708618    1.3268048 
C    -3.0055329    0.8031252    1.3482624 
C    -5.3672216    0.0057167    1.8572885 
C    -5.0336156   -0.2922720    3.3422220 
C    -6.8362036    0.4661622    1.7662945 
C    -5.2028834   -1.2905130    1.0226326 
C     0.3974792    1.9557030   -0.6296767 
C     1.4969264    2.8372782   -0.6121090 
C     2.0407904    3.3128732   -1.8109366 
C     1.5039555    2.9181897   -3.0400846 
C    -0.1643441    1.5490181   -1.8647440 
C     0.4024076    2.0500901   -3.0628557 
C    -1.3830837    0.6934698   -1.9994517 
C    -2.5233093    1.3013771   -2.5836233 
O    -2.4397617    2.6377297   -2.8763934 
C    -2.7138465    3.0849661   -4.2237211 
C    -1.4306367    3.6370379   -4.8503619 
C    -0.4278689    2.5616112   -5.2781641 
O    -0.1632518    1.6069294   -4.2322269 
C    -3.7048986    0.5797453   -2.8068320 
C    -3.7467928   -0.7803906   -2.4872266 
C    -2.6290017   -1.4099853   -1.9272892 
C    -1.4476569   -0.6854317   -1.6683875 
C     1.4498425   -1.0736138   -1.8443672 
C     1.3697943   -1.1291031   -3.2506913 
C     2.4959015   -0.8434931   -4.0327119 
C     2.4687819   -0.9165542   -5.5708527 
C     1.0588218   -1.2444518   -6.1059100 
C     3.4477018   -2.0250334   -6.0367842 
C     2.9064163    0.4500358   -6.1558059 
C     3.6899923   -0.4851329   -3.3646300 
C     3.7937089   -0.4014718   -1.9660321 
C     2.6441273   -0.7117292   -1.2085181 
C     5.0940138    0.0169282   -1.2495091 
C     4.8449412    1.3381811   -0.4796181 
C     6.2600853    0.2379075   -2.2348950 
C     5.5051151   -1.0878894   -0.2449074 
C    -0.2846674   -3.3120696   -1.1208600 
C    -1.3185537   -3.9496050   -0.4004042 
C    -1.5932530   -5.3109425   -0.5924245 
C    -2.7409791   -6.0330560    0.1411092 
C    -2.1863085   -7.2618909    0.9060513 
C    -3.7811733   -6.5034811   -0.9088020 
C    -3.4511348   -5.1111355    1.1548706 
C    -0.7809025   -6.0244359   -1.5051513 
C     0.2743453   -5.4264267   -2.2119968 
C     0.5099591   -4.0506777   -2.0043490 
C     1.1375477   -6.1877881   -3.2371224 
C     0.7617081   -5.6778734   -4.6540979 
C     2.6411870   -5.9138434   -2.9807866 
C     0.9020943   -7.7112832   -3.1755153 
H     5.1522592    2.5020890    5.7707628 
H     3.4145543    2.1991368    6.0753439 
H     3.9912865    3.8474553    5.7054996 
H     5.2572055    0.7659936    4.0871485 
H     3.5277432    0.3431639    4.2283534 
H     4.2360776    0.7469692    2.6332387 
H     5.9556327    3.1310926    3.4099200 
H     4.7361356    4.4357557    3.3145448 
H     4.7880518    3.1726283    2.0527610 
H     2.1372289    1.0381132    2.3637335 
H     2.4853339    4.7476731    4.5436981 
H    -1.7314511    7.0635423    3.7477842 
H    -1.3862589    6.1126242    2.2822236 
H    -2.0620224    5.3113103    3.7327671 
H    -0.6378606    5.1159503    5.8677561 
H     1.0256534    5.7598555    5.9130847 
H    -0.3569862    6.8816558    5.8058063 
H     2.0188749    6.8809536    3.7769750 
H     1.0387975    6.9556164    2.2855619 
H     0.6042349    7.9654564    3.6988089 
H    -1.0675535    3.9120229    2.2444640 
H    -1.7858237    3.6626710   -0.0731488 
H    -6.2850295    3.7072364   -1.0759626 
H    -4.9041609    3.6857924   -2.2091984 
H    -5.7822062    5.2153894   -1.8826297 
H    -2.5708179    5.7723707   -0.0527508 
H    -2.7295396    4.9475772   -1.6347611 
H    -3.7093746    6.3992282   -1.2692716 
H    -5.9985984    4.8115689    1.2572083 
H    -5.5460973    6.3347085    0.4444799 
H    -4.4572068    5.6152873    1.6696353 
H    -5.8645022    2.5439127    0.7795846 
H    -2.6328138   -0.1596340    1.7154946 
H    -4.0106066   -0.6920557    3.4585667 
H    -5.7334771   -1.0434011    3.7494138 
H    -5.1119732    0.6223040    3.9556223 
H    -7.1351831    0.6703033    0.7230252 
H    -7.4994440   -0.3257657    2.1548448 
H    -7.0163838    1.3763011    2.3649461 
H    -5.4423322   -1.1054861   -0.0382935 
H    -5.8767384   -2.0793628    1.4021100 
H    -4.1691547   -1.6755510    1.0685010 
H     1.9231643    3.1628280    0.3396016 
H     2.8927283    3.9999229   -1.7853108 
H     1.9368337    3.2798287   -3.9767097 
H    -3.1311777    2.2532453   -4.8209526 
H    -3.4758936    3.8799949   -4.1506059 
H    -1.6919753    4.2344189   -5.7440226 
H    -0.9638683    4.3293305   -4.1263259 
H     0.5103311    3.0226819   -5.6417905 
H    -0.8341533    1.9453500   -6.0967725 
H    -4.5776777    1.0885172   -3.2268947 
H    -4.6576876   -1.3586169   -2.6731547 
H    -2.6763502   -2.4785097   -1.7071323 
H     0.4153927   -1.3838722   -3.7170376 
H     1.0737600   -1.2569348   -7.2095402 
H     0.7153027   -2.2383229   -5.7684870 
H     0.3219738   -0.4917655   -5.7771354 
H     3.1518210   -3.0056472   -5.6232388 
H     3.4460410   -2.0999232   -7.1389722 
H     4.4823572   -1.8173810   -5.7129341 
H     3.9331835    0.7185576   -5.8535945 
H     2.8783161    0.4210277   -7.2596077 
H     2.2275243    1.2477791   -5.8099853 
H     4.5694500   -0.2573505   -3.9716284 
H     2.6641086   -0.6631112   -0.1139653 
H     4.5990233    2.1561889   -1.1766918 
H     4.0051127    1.2439772    0.2302076 
H     5.7463798    1.6243050    0.0913820 
H     7.1666264    0.5287624   -1.6765852 
H     6.0404691    1.0454923   -2.9553127 
H     6.4953531   -0.6803528   -2.8012689 
H     5.6499520   -2.0539271   -0.7584789 
H     4.7381698   -1.2298881    0.5344125 
H     6.4494979   -0.8142239    0.2584058 
H    -1.9062372   -3.3624097    0.3112576 
H    -1.6913775   -7.9791101    0.2294522 
H    -3.0078485   -7.7949051    1.4163734 
H    -1.4527714   -6.9544265    1.6724529 
H    -4.6187667   -7.0250244   -0.4121587 
H    -4.1905046   -5.6425881   -1.4664642 
H    -3.3333349   -7.1995540   -1.6388041 
H    -2.7541297   -4.7427634    1.9298401 
H    -4.2523079   -5.6698668    1.6682414 
H    -3.9171431   -4.2390606    0.6634874 
H    -0.9855824   -7.0868603   -1.6584676 
H     1.3225674   -3.5541722   -2.5394900 
H     0.9471327   -4.5932455   -4.7492689 
H     1.3645858   -6.1960935   -5.4213412 
H    -0.3056037   -5.8612854   -4.8685203 
H     3.2537247   -6.4742356   -3.7089559 
H     2.9328446   -6.2267577   -1.9644817 
H     2.8924230   -4.8446119   -3.0891736 
H    -0.1371337   -7.9797454   -3.4341524 
H     1.1264021   -8.1142492   -2.1716869 
H     1.5623442   -8.2195460   -3.8990709 
