200
Energy =
C     0.5822565   -2.8805566    2.3461758 
C     0.4308182   -1.8493448    3.3284604 
C    -0.8130425   -1.1932057    3.4750219 
H     1.3140663   -1.4604837    3.8503609 
Pd    0.0040607   -0.9800747    1.3568381 
P    -0.5203885    1.2526564    0.9460836 
P     0.2222401   -1.4944036   -0.8974593 
H    -0.3040009   -3.4918181    2.1263664 
H    -1.6917562   -1.7236800    3.0750126 
C     4.3082894   -4.8031479    1.3557267 
C     4.3165024   -3.5145732    1.9157537 
C     3.1148713   -2.8731448    2.2326837 
C     1.8723467   -3.5127696    2.0102163 
C     1.8808770   -4.8052164    1.4403876 
C     3.0835764   -5.4434373    1.1176933 
H     5.2509377   -5.3011013    1.1062796 
H     5.2676848   -3.0052697    2.1009789 
H     3.1415606   -1.8587478    2.6460397 
H     0.9307912   -5.3111332    1.2477297 
H     3.0600130   -6.4477511    0.6818920 
C    -1.9085288    2.0669094    6.0453370 
C    -2.8570971    1.4565068    5.2114776 
C    -2.4773414    0.3951018    4.3850063 
C    -1.1436487   -0.0773702    4.3700203 
C    -0.1981175    0.5545015    5.2099830 
C    -0.5786457    1.6149420    6.0372343 
H    -2.2046744    2.8908363    6.7023182 
H    -3.8951892    1.8047843    5.2075546 
H    -3.2201965   -0.0778596    3.7350748 
H     0.8408806    0.2136913    5.2203922 
H     0.1668997    2.0951010    6.6785697 
C    -0.3858550    5.6854800    5.8100895 
C    -0.5982162    5.5170075    4.2856067 
C     0.0461979    6.7185826    3.5444563 
C    -2.1179052    5.5119435    4.0048732 
C     0.0805878    4.2308823    3.7743961 
C    -0.5404417    3.3993023    2.8223746 
C     1.3802946    3.8905411    4.1963687 
C     2.0657669    2.7468608    3.7369874 
C     3.4745608    2.4202520    4.2704731 
C     4.4626812    3.4937270    3.7452670 
C     3.4675220    2.4324410    5.8202089 
C     3.9610855    1.0301276    3.8072266 
C     1.4209111    1.9478860    2.7795988 
C     0.1356367    2.2844109    2.3089943 
C    -2.3015766    1.5771136    0.7284583 
C    -2.7709070    2.8271443    0.2898108 
C    -4.1468502    3.0370191    0.0992551 
C    -4.7101270    4.3839932   -0.3910300 
C    -5.5740055    5.0085999    0.7340029 
C    -5.5803375    4.1424216   -1.6509038 
C    -3.5854248    5.3729456   -0.7647085 
C    -5.0188340    1.9586400    0.3558976 
C    -4.5729318    0.6828300    0.7545653 
C    -3.1917819    0.5112192    0.9376183 
C    -5.5764987   -0.4627134    0.9883652 
C    -6.4080840   -0.1398657    2.2565559 
C    -6.5216975   -0.5956133   -0.2320050 
C    -4.8606815   -1.8169524    1.1892809 
C     0.2609817    1.9992171   -0.5516184 
C     1.2640592    2.9806437   -0.4275344 
C     1.8469966    3.5412415   -1.5705024 
C     1.4414403    3.1369773   -2.8461109 
C    -0.1645436    1.5781259   -1.8350040 
C     0.4325870    2.1702212   -2.9738293 
C    -1.2829965    0.6150265   -2.0767634 
C    -2.4433536    1.1370184   -2.7025483 
O    -2.4714400    2.4852183   -2.9470989 
C    -2.6931611    2.9508922   -4.2980297 
C    -1.4300475    3.6424110   -4.8190071 
C    -0.3041692    2.6846777   -5.2195544 
O    -0.0082469    1.7183625   -4.1927255 
C    -3.5370047    0.3163165   -3.0154279 
C    -3.4634746   -1.0544936   -2.7490712 
C    -2.3203204   -1.5992226   -2.1517632 
C    -1.2305528   -0.7766249   -1.8002526 
C     1.6982934   -0.8832143   -1.7763182 
C     1.7240868   -0.8979078   -3.1855794 
C     2.8718484   -0.4846467   -3.8734671 
C     2.9588375   -0.4988807   -5.4110083 
C     3.2847897    0.9297662   -5.9155505 
C     1.6324997   -0.9516297   -6.0571885 
C     4.0813970   -1.4772109   -5.8427079 
C     3.9781254   -0.0472383   -3.1082394 
C     3.9744006   -0.0061650   -1.7039028 
C     2.8057945   -0.4404203   -1.0425123 
C     5.1744499    0.5050598   -0.8814102 
C     4.7660372    1.8213300   -0.1723485 
C     6.4109191    0.7844149   -1.7605669 
C     5.5588307   -0.5529209    0.1817510 
C     0.1560267   -3.3002623   -1.2133420 
C    -0.8521067   -4.0536408   -0.5722710 
C    -0.9406275   -5.4398745   -0.7593393 
C    -2.0394166   -6.2928846   -0.0950394 
C    -2.9727392   -5.4446691    0.7948671 
C    -1.3841208   -7.3857645    0.7881408 
C    -2.8931177   -6.9631324   -1.2023396 
C     0.0287399   -6.0564971   -1.5864780 
C     1.0567241   -5.3382286   -2.2177466 
C     1.1041246   -3.9420046   -2.0172777 
C     2.0946718   -5.9937513   -3.1495456 
C     2.0324983   -7.5341866   -3.0949530 
C     1.7996064   -5.5300864   -4.6012402 
C     3.5250934   -5.5457404   -2.7540845 
H    -0.9044999    6.5934443    6.1640422 
H     0.6800848    5.7951387    6.0725127 
H    -0.7873710    4.8202369    6.3639303 
H    -0.4099748    7.6678455    3.8785903 
H     1.1315795    6.7704962    3.7408119 
H    -0.0988244    6.6284887    2.4533120 
H    -2.5792381    6.4149164    4.4402426 
H    -2.6062559    4.6269586    4.4492242 
H    -2.3395952    5.5206802    2.9230241 
H    -1.5493469    3.6201174    2.4699694 
H     1.8784130    4.5381652    4.9240660 
H     5.4843691    3.2915417    4.1139260 
H     4.4860141    3.4953307    2.6414119 
H     4.1727099    4.5042060    4.0816287 
H     3.1779641    3.4165259    6.2256281 
H     2.7638297    1.6795991    6.2173763 
H     4.4746735    2.1965459    6.2065847 
H     3.2777444    0.2306292    4.1465827 
H     4.0539914    0.9654975    2.7102407 
H     4.9565802    0.8212911    4.2348558 
H     1.9076124    1.0525162    2.3781128 
H    -2.0502360    3.6166184    0.0660892 
H    -4.9657321    5.1917864    1.6375900 
H    -6.4110107    4.3463678    1.0164243 
H    -6.0002940    5.9722591    0.4021276 
H    -4.9838319    3.6442743   -2.4339404 
H    -6.4560051    3.5074566   -1.4328390 
H    -5.9549602    5.1026346   -2.0476365 
H    -2.9594124    5.6313710    0.1080478 
H    -4.0261139    6.3111462   -1.1436199 
H    -2.9319517    4.9557803   -1.5508283 
H    -6.0935634    2.1144821    0.2159146 
H    -2.7776216   -0.4608721    1.2179010 
H    -5.7546831   -0.0486153    3.1425662 
H    -7.1439694   -0.9405507    2.4513810 
H    -6.9586272    0.8100905    2.1425834 
H    -5.9441452   -0.7942411   -1.1508847 
H    -7.2289714   -1.4294346   -0.0763597 
H    -7.1175520    0.3186405   -0.3936296 
H    -4.2205917   -2.0652164    0.3241491 
H    -5.6070073   -2.6215515    1.3050508 
H    -4.2317021   -1.8226809    2.0977599 
H     1.5832101    3.3170877    0.5617216 
H     2.6253976    4.3036781   -1.4641068 
H     1.9037750    3.5683638   -3.7381352 
H    -2.9889424    2.1050381   -4.9460906 
H    -3.5300118    3.6692424   -4.2576001 
H    -1.6909450    4.2497196   -5.7061621 
H    -1.0769180    4.3443929   -4.0419395 
H     0.6042048    3.2476908   -5.5080659 
H    -0.5996105    2.0659470   -6.0826165 
H    -4.4325301    0.7579310   -3.4625870 
H    -4.3027988   -1.7081029   -3.0080305 
H    -2.2729100   -2.6761421   -1.9748812 
H     0.8333671   -1.2228446   -3.7280337 
H     3.3388528    0.9438004   -7.0187039 
H     2.4996375    1.6354363   -5.5951510 
H     4.2516478    1.2932212   -5.5271819 
H     0.7988827   -0.2913657   -5.7624919 
H     1.7257289   -0.9222212   -7.1566376 
H     1.3738155   -1.9875360   -5.7743195 
H     3.8662458   -2.4999196   -5.4850415 
H     4.1621454   -1.5061400   -6.9440985 
H     5.0635876   -1.1752529   -5.4394432 
H     4.8745536    0.2792980   -3.6409537 
H     2.7439855   -0.4317722    0.0514889 
H     4.5374622    2.6071744   -0.9115768 
H     3.8667680    1.6832045    0.4520009 
H     5.5855597    2.1790322    0.4767008 
H     7.2467353    1.1268451   -1.1261777 
H     6.2159296    1.5758359   -2.5055366 
H     6.7435189   -0.1230622   -2.2946216 
H     5.8221599   -1.5137921   -0.2930637 
H     4.7310900   -0.7432322    0.8838261 
H     6.4262087   -0.2046170    0.7705037 
H    -1.5625595   -3.5378185    0.0803274 
H    -2.4202194   -4.9524353    1.6159577 
H    -3.7387116   -6.0925442    1.2544058 
H    -3.4991250   -4.6658752    0.2154384 
H    -2.1617328   -8.0164334    1.2543297 
H    -0.7239544   -8.0461806    0.2005274 
H    -0.7822272   -6.9332007    1.5961272 
H    -3.3680026   -6.2012156   -1.8454213 
H    -3.6896632   -7.5809960   -0.7507111 
H    -2.2816340   -7.6182348   -1.8461359 
H    -0.0277489   -7.1381413   -1.7315366 
H     1.8926133   -3.3529329   -2.4918242 
H     1.0586601   -7.9206262   -3.4431619 
H     2.8097316   -7.9614728   -3.7515343 
H     2.2106789   -7.9102321   -2.0715705 
H     2.5285775   -5.9753441   -5.3019856 
H     1.8671507   -4.4312184   -4.6911342 
H     0.7860372   -5.8361789   -4.9138522 
H     3.7532129   -5.8211105   -1.7107775 
H     3.6593400   -4.4546192   -2.8517730 
H     4.2657409   -6.0318337   -3.4133635 
