206
Energy =
C     0.8212568    0.9157331   -3.8978917 
C     0.3878778   -0.4161209   -4.0854486 
C    -0.9707567   -0.7989059   -3.8512441 
H     1.1384656   -1.1970476   -4.2661011 
Pd   -0.0934709    0.0358616   -1.9924653 
P    -1.4789263   -0.8678011   -0.3670131 
P     1.4308448    0.7753244   -0.3673378 
H     0.0520833    1.7032649   -3.9432076 
H    -1.7539726   -0.0588984   -4.0724804 
C     4.8211519    2.3762558   -4.4829840 
C     3.7204348    3.2375488   -4.5915633 
C     2.4260011    2.7492988   -4.3821912 
C     2.2041255    1.3917438   -4.0638807 
C     3.3260451    0.5430508   -3.9313007 
C     4.6186961    1.0286815   -4.1406928 
H     5.8336941    2.7528539   -4.6598315 
H     3.8694262    4.2930360   -4.8404364 
H     1.5681515    3.4224195   -4.4769129 
H     3.1888081   -0.5018036   -3.6483777 
H     5.4748645    0.3547734   -4.0308501 
C    -2.2800039   -4.9030115   -3.7642038 
C    -3.1603729   -3.8832231   -4.1538348 
C    -2.7219786   -2.5544077   -4.1988143 
C    -1.3999562   -2.2123528   -3.8429372 
C    -0.5260872   -3.2517631   -3.4456904 
C    -0.9582872   -4.5811644   -3.4126965 
H    -2.6195283   -5.9432283   -3.7323304 
H    -4.1953001   -4.1202312   -4.4208413 
H    -3.4125614   -1.7648502   -4.5089448 
H     0.4951661   -3.0128571   -3.1299834 
H    -0.2635327   -5.3685771   -3.1006123 
C    -4.4182118    0.8856110    5.0763353 
C    -4.7107138    0.0711809    3.7912883 
C    -4.4200677   -1.4176937    4.0752700 
C    -6.2073930    0.2177896    3.4117532 
C    -3.8536312    0.6104255    2.6307907 
C    -3.0268148   -0.2194512    1.8655441 
C    -3.9274860    1.9785454    2.2767145 
C    -3.2009846    2.5325164    1.2115488 
C    -3.2969796    4.0192989    0.8189980 
C    -4.3461392    4.7811572    1.6548593 
C    -1.9165315    4.6855986    1.0422935 
C    -3.6990867    4.1242958   -0.6751538 
C    -2.3653950    1.6689977    0.4694813 
C    -2.2901601    0.3097855    0.7875172 
C    -3.0004461   -1.7646057   -0.8763479 
C    -3.8602984   -1.0006944   -1.6927945 
C    -5.1538741   -1.4445581   -1.9884786 
C    -6.1446757   -0.6029982   -2.8149628 
C    -7.3336533   -0.2089079   -1.8994949 
C    -6.6664109   -1.4303328   -4.0169953 
C    -5.4970910    0.6900275   -3.3549415 
C    -5.5526205   -2.6985463   -1.4702743 
C    -4.7180284   -3.4856969   -0.6619824 
C    -3.4314153   -2.9890934   -0.3563037 
C    -5.1582641   -4.8380996   -0.0679190 
C    -5.1693145   -4.7261174    1.4792363 
C    -6.5679781   -5.2513816   -0.5386215 
C    -4.1556788   -5.9378327   -0.5015844 
C    -0.3958752   -1.9869196    0.5966047 
C    -0.2607515   -3.3274433    0.1740366 
C     0.6026838   -4.1849197    0.8598074 
C     1.3640832   -3.7215956    1.9388469 
C     0.4012834   -1.4810495    1.6513305 
C     1.2821367   -2.3719595    2.3239901 
C     0.3605346   -0.0646405    2.1251285 
C    -0.1297334    0.1706665    3.4359459 
O    -0.6063871   -0.9283500    4.0898934 
C    -0.7183706   -0.8929363    5.5254610 
C     0.6489504   -0.9262002    6.2270149 
C     1.2056200   -2.3347299    6.5047859 
C     1.5065700   -3.2300762    5.2887282 
C     2.5812735   -2.6854038    4.3338850 
O     2.0306949   -1.8213343    3.3221106 
C    -0.1431202    1.4705725    3.9718186 
C     0.3296133    2.5397069    3.2044062 
C     0.8146333    2.3330024    1.9087055 
C     0.8316298    1.0345132    1.3636900 
C     2.2203039    2.3771849   -0.8002328 
C     1.3852673    3.3948107   -1.3108609 
C     1.8986683    4.6716841   -1.5861916 
C     1.0227187    5.8235817   -2.1194382 
C     1.6964875    6.4953604   -3.3427785 
C     0.8581400    6.8721692   -0.9877686 
C    -0.3756845    5.3357691   -2.5523523 
C     3.2706313    4.8974953   -1.3318768 
C     4.1311096    3.8995369   -0.8475581 
C     3.5823055    2.6249080   -0.5955665 
C     5.6170732    4.1542015   -0.5257532 
C     6.5034505    3.0964340   -1.2287804 
C     6.0800999    5.5545048   -0.9778493 
C     5.8044482    4.0401910    1.0105953 
C     2.7767573   -0.4566102   -0.1543921 
C     2.9196388   -1.5258667   -1.0514625 
C     4.0024101   -2.4230836   -0.9365142 
C     4.1367748   -3.6158378   -1.9081862 
C     3.9934681   -3.1373052   -3.3734069 
C     5.4991514   -4.3283187   -1.7698665 
C     3.0123883   -4.6356898   -1.5984403 
C     4.9223260   -2.1991580    0.1035330 
C     4.7853131   -1.1547155    1.0445141 
C     3.6863484   -0.2943534    0.9098046 
C     5.8523947   -0.9462362    2.1369038 
C     7.1270114   -0.3738978    1.4620218 
C     6.1998049   -2.2901413    2.8234450 
C     5.3734208    0.0453855    3.2196403 
H    -3.3509491    0.8134776    5.3490135 
H    -4.6635528    1.9541974    4.9520610 
H    -5.0183959    0.4999091    5.9194848 
H    -3.3537767   -1.5832444    4.3063730 
H    -4.6877874   -2.0558702    3.2154776 
H    -5.0172136   -1.7564107    4.9395058 
H    -6.8494715   -0.1687823    4.2235966 
H    -6.4801806    1.2730480    3.2369194 
H    -6.4314326   -0.3491680    2.4908100 
H    -2.9532863   -1.2873876    2.0828574 
H    -4.5899789    2.6262453    2.8558167 
H    -4.3878822    5.8342097    1.3267414 
H    -4.0939109    4.7783293    2.7298089 
H    -5.3556865    4.3508820    1.5325907 
H    -1.6375021    4.6510240    2.1092518 
H    -1.9433699    5.7427133    0.7231620 
H    -1.1199663    4.1746254    0.4758255 
H    -2.9688974    3.6256012   -1.3354085 
H    -4.6844571    3.6562414   -0.8470028 
H    -3.7599662    5.1832780   -0.9831604 
H    -1.7784781    2.0489635   -0.3749712 
H    -3.5047463   -0.0356849   -2.0665306 
H    -8.0627239    0.4044881   -2.4587879 
H    -6.9792718    0.3749381   -1.0316035 
H    -7.8620220   -1.0995162   -1.5176702 
H    -7.3856387   -0.8347950   -4.6065382 
H    -5.8380897   -1.7251693   -4.6852628 
H    -7.1824556   -2.3491501   -3.6900857 
H    -4.6365192    0.4723677   -4.0136268 
H    -5.1510200    1.3479360   -2.5379572 
H    -6.2351458    1.2559057   -3.9489841 
H    -6.5582062   -3.0581951   -1.7010359 
H    -2.7818982   -3.5560718    0.3150972 
H    -5.4814656   -5.6848774    1.9305151 
H    -5.8746707   -3.9431449    1.8089528 
H    -4.1706433   -4.4754386    1.8778177 
H    -7.3362518   -4.5252459   -0.2195351 
H    -6.6174098   -5.3509065   -1.6374438 
H    -6.8336326   -6.2293733   -0.1015702 
H    -4.4497721   -6.9126966   -0.0736233 
H    -4.1335256   -6.0324957   -1.6006535 
H    -3.1293362   -5.7153222   -0.1612572 
H    -0.8290037   -3.6951902   -0.6840302 
H     0.6888356   -5.2310201    0.5497177 
H     2.0303220   -4.4101538    2.4630513 
H    -1.3193739   -1.7835360    5.7722018 
H    -1.3072776   -0.0102573    5.8333000 
H     1.3626176   -0.3279842    5.6299090 
H     0.5478764   -0.4032442    7.1959035 
H     2.1341762   -2.2273512    7.0979198 
H     0.4917802   -2.8704735    7.1597646 
H     1.8476544   -4.2123875    5.6643307 
H     0.5882818   -3.4271227    4.7044022 
H     3.3075690   -2.0504306    4.8667453 
H     3.1524727   -3.5030984    3.8586723 
H    -0.5214293    1.6541069    4.9798499 
H     0.3227539    3.5499056    3.6263665 
H     1.1895913    3.1787613    1.3275445 
H     0.3308617    3.1655886   -1.4959733 
H     1.0672688    7.3251416   -3.7098308 
H     2.6858529    6.9151316   -3.0949198 
H     1.8284176    5.7764513   -4.1694950 
H     0.2256693    7.7116396   -1.3285884 
H     1.8349235    7.2840221   -0.6800343 
H     0.3849393    6.4186997   -0.1001219 
H    -0.9561701    6.1803579   -2.9614295 
H    -0.9487218    4.9232301   -1.7069385 
H    -0.3114542    4.5613191   -3.3380250 
H     3.6756861    5.8925084   -1.5293891 
H     4.2255714    1.8222570   -0.2272159 
H     6.4054745    3.1701494   -2.3239707 
H     7.5634641    3.2540085   -0.9619275 
H     6.2325431    2.0675630   -0.9362996 
H     5.9475266    5.6929919   -2.0656414 
H     7.1523376    5.6828049   -0.7503320 
H     5.5330461    6.3582710   -0.4544615 
H     6.8598485    4.2203164    1.2829664 
H     5.5259671    3.0360121    1.3753375 
H     5.1781524    4.7798207    1.5393617 
H     2.1625756   -1.6587358   -1.8326871 
H     4.7545592   -2.3773952   -3.6212537 
H     2.9960001   -2.7061213   -3.5680162 
H     4.1187677   -3.9880928   -4.0655299 
H     5.6320540   -4.7714056   -0.7676488 
H     5.5635459   -5.1501430   -2.5036156 
H     6.3400578   -3.6382967   -1.9601901 
H     3.1105834   -5.0220911   -0.5699237 
H     3.0621752   -5.4886302   -2.2993521 
H     2.0159644   -4.1707130   -1.6847646 
H     5.7803773   -2.8680027    0.1986372 
H     3.5175589    0.5086445    1.6307945 
H     7.9214099   -0.2121768    2.2126891 
H     7.5164541   -1.0641689    0.6933190 
H     6.9115922    0.5926584    0.9738991 
H     6.6299282   -3.0192914    2.1160565 
H     5.3038343   -2.7440581    3.2787121 
H     6.9463185   -2.1254481    3.6201682 
H     5.2327048    1.0617447    2.8125958 
H     4.4175380   -0.2781345    3.6663632 
H     6.1278258    0.1158863    4.0220096 
