200
Energy =
C     0.5993991   -2.9251007    2.2894397 
C     0.7169152   -1.9157931    3.2924231 
C    -0.3801996   -1.0876282    3.6200225 
H     1.7083002   -1.6694672    3.6947679 
Pd    0.1420780   -0.9287680    1.4044294 
P    -0.3225197    1.3229373    0.9806560 
P     0.1343587   -1.4805136   -0.8550429 
H    -0.3829309   -3.4030041    2.1735761 
H    -1.3801037   -1.4391987    3.3193053 
C     3.8981146   -5.3360092    0.9283372 
C     4.1310572   -4.0241192    1.3739584 
C     3.0668870   -3.2267044    1.8066283 
C     1.7434871   -3.7255646    1.8103865 
C     1.5245516   -5.0421142    1.3498354 
C     2.5896480   -5.8397899    0.9170818 
H     4.7328569   -5.9575062    0.5881564 
H     5.1486527   -3.6209826    1.3789495 
H     3.2607440   -2.1984450    2.1333622 
H     0.5065836   -5.4409559    1.3340585 
H     2.3929964   -6.8594497    0.5697731 
C    -0.4669962    2.0181487    6.5880063 
C     0.5749011    1.0781213    6.5961747 
C     0.6242428    0.0708091    5.6268254 
C    -0.3803377   -0.0252590    4.6375658 
C    -1.4366212    0.9146300    4.6548642 
C    -1.4733625    1.9312588    5.6135701 
H    -0.4985757    2.8086019    7.3445642 
H     1.3459121    1.1221442    7.3720547 
H     1.4295673   -0.6696559    5.6628144 
H    -2.2194179    0.8571306    3.8900546 
H    -2.2899023    2.6605992    5.5994254 
C     3.8554199    2.9377469    5.6867746 
C     3.7138635    2.6320978    4.1761810 
C     4.1019231    1.1541272    3.9444183 
C     4.6864229    3.5372359    3.3742091 
C     2.2833252    2.9316542    3.6869224 
C     1.6121540    2.0757074    2.7971668 
C     1.6258114    4.1198046    4.0628589 
C     0.3442218    4.4736754    3.5935412 
C    -0.3087441    5.7926139    4.0523169 
C    -1.7363352    5.9578152    3.4880660 
C    -0.3912013    5.8254247    5.5994643 
C     0.5586464    6.9774073    3.5534710 
C    -0.2854521    3.6048370    2.6855877 
C     0.3513210    2.4217278    2.2799108 
C    -2.1116512    1.6450386    0.8105787 
C    -2.9940052    0.6032046    1.1412329 
C    -4.3829025    0.7715330    1.0265416 
C    -5.3720789   -0.3573055    1.3738024 
C    -6.1653742    0.0483947    2.6422090 
C    -4.6424156   -1.6914982    1.6464186 
C    -6.3505943   -0.5773595    0.1928623 
C    -4.8470047    2.0259311    0.5835629 
C    -3.9870522    3.0826465    0.2174868 
C    -2.6022416    2.8707586    0.3278772 
C    -4.5747757    4.4132320   -0.2897334 
C    -5.5140738    4.1334472   -1.4903321 
C    -5.3757063    5.0773196    0.8594757 
C    -3.4723663    5.3881449   -0.7548501 
C     0.4298866    2.0046644   -0.5637358 
C     1.4995503    2.9187360   -0.4846385 
C     2.0873848    3.4247941   -1.6502742 
C     1.6238595    3.0247209   -2.9070555 
C    -0.0606382    1.5962464   -1.8289949 
C     0.5477904    2.1285659   -2.9917252 
C    -1.2494442    0.7114337   -2.0292542 
C    -2.3805062    1.3052827   -2.6458754 
O    -2.2902835    2.6489886   -2.9117287 
C    -2.7173212    3.1268769   -4.2027175 
C    -1.8960362    2.5358826   -5.3521913 
C    -0.3800263    2.6579610   -5.1750461 
O     0.0739536    1.6914802   -4.2011590 
C    -3.5347939    0.5607930   -2.9275957 
C    -3.5553599   -0.8054111   -2.6306736 
C    -2.4458448   -1.4206616   -2.0402810 
C    -1.2924020   -0.6731208   -1.7245928 
C     1.6149462   -0.9993748   -1.8059835 
C     1.5815381   -1.0324253   -3.2147936 
C     2.7200515   -0.6890863   -3.9546295 
C     2.7391434   -0.7152933   -5.4944634 
C     3.1187124    0.6923469   -6.0208778 
C     1.3628085   -1.0954579   -6.0801583 
C     3.7860937   -1.7555111   -5.9686360 
C     3.8795505   -0.3039329   -3.2417319 
C     3.9371617   -0.2473149   -1.8390490 
C     2.7754063   -0.6101280   -1.1252145 
C     5.2000388    0.1933208   -1.0708609 
C     6.3801224    0.5044111   -2.0141892 
C     5.6285881   -0.9384699   -0.1039135 
C     4.8784672    1.4680669   -0.2507461 
C    -0.1100866   -3.2747005   -1.1452258 
C     0.7149371   -4.0107352   -2.0061610 
C     0.4878433   -5.3843615   -2.2206514 
C     1.3823759   -6.1412294   -3.2229250 
C     2.8767489   -5.9329053   -2.8693768 
C     1.1108536   -5.5683663   -4.6399912 
C     1.0904485   -7.6558594   -3.2359152 
C    -0.5883966   -5.9911279   -1.5444945 
C    -1.4321431   -5.2790514   -0.6648766 
C    -1.1627526   -3.9150420   -0.4641036 
C    -2.6456077   -5.9229053    0.0368371 
C    -2.6192747   -5.6065969    1.5538810 
C    -3.9352955   -5.3254972   -0.5863963 
C    -2.6735029   -7.4556730   -0.1380987 
H     4.8753343    2.6882304    6.0279902 
H     3.1361243    2.3451314    6.2761825 
H     3.6862273    4.0042881    5.9119911 
H     5.1054491    0.9626950    4.3615786 
H     3.3894871    0.4722294    4.4413135 
H     4.1402824    0.8970714    2.8716162 
H     5.7306643    3.3555697    3.6867347 
H     4.4591462    4.6050766    3.5381033 
H     4.6078446    3.3338521    2.2918227 
H     2.0681734    1.1326390    2.4782351 
H     2.1340337    4.8011038    4.7522883 
H    -2.1753809    6.9002502    3.8578158 
H    -1.7394864    6.0009540    2.3845173 
H    -2.3985013    5.1315711    3.8033710 
H    -1.0136880    4.9957699    5.9753031 
H     0.6049808    5.7414690    6.0664706 
H    -0.8415891    6.7758921    5.9361513 
H     1.5827394    6.9307868    3.9625108 
H     0.6310352    6.9719097    2.4515915 
H     0.1124897    7.9380949    3.8671287 
H    -1.2760506    3.8393718    2.2934770 
H    -2.5684863   -0.3524122    1.4605573 
H    -6.7276318    0.9844837    2.4808460 
H    -5.4835243    0.2039321    3.4970658 
H    -6.8884128   -0.7412036    2.9146157 
H    -4.0353120   -2.0008215    0.7767448 
H    -3.9800282   -1.6278639    2.5284617 
H    -5.3795750   -2.4880520    1.8458428 
H    -6.9495145    0.3246959   -0.0188202 
H    -7.0535589   -1.3960492    0.4282740 
H    -5.7981386   -0.8438378   -0.7243628 
H    -5.9277215    2.1820729    0.5009085 
H    -1.8941841    3.6391414    0.0104454 
H    -4.9598040    3.6294391   -2.3001003 
H    -5.9246258    5.0802414   -1.8837097 
H    -6.3659921    3.4915445   -1.2078798 
H    -4.7190726    5.2850984    1.7228466 
H    -5.8139509    6.0328536    0.5199118 
H    -6.2002572    4.4303718    1.2064963 
H    -2.8047365    5.6765306    0.0762060 
H    -3.9336652    6.3122078   -1.1437195 
H    -2.8575367    4.9435954   -1.5562843 
H     1.8706817    3.2437126    0.4902593 
H     2.9182828    4.1337196   -1.5755623 
H     2.0908216    3.3965348   -3.8239419 
H    -3.7969043    2.9382756   -4.3577504 
H    -2.5768311    4.2181664   -4.1361548 
H    -2.1418733    1.4669085   -5.4867728 
H    -2.1939608    3.0540967   -6.2831201 
H    -0.0896618    3.6778180   -4.8614587 
H     0.1352176    2.4234256   -6.1224558 
H    -4.4049485    1.0461684   -3.3777878 
H    -4.4421983   -1.4020430   -2.8676860 
H    -2.4751406   -2.4948217   -1.8467683 
H     0.6513583   -1.3085852   -3.7164563 
H     3.1198836    0.7006890   -7.1254900 
H     2.3892034    1.4389098   -5.6639340 
H     4.1221449    1.0025866   -5.6821519 
H     0.5826038   -0.3848074   -5.7575460 
H     1.4114037   -1.0796549   -7.1828167 
H     1.0564396   -2.1123410   -5.7769167 
H     3.5288608   -2.7641706   -5.5990899 
H     3.8195118   -1.7899873   -7.0723205 
H     4.7994753   -1.5087564   -5.6072017 
H     4.7680779   -0.0307357   -3.8159581 
H     2.7583760   -0.5804925   -0.0299033 
H     6.6734254   -0.3798492   -2.6069887 
H     6.1412963    1.3275777   -2.7105042 
H     7.2571507    0.8150383   -1.4204528 
H     6.5493194   -0.6524580    0.4352440 
H     5.8222313   -1.8759063   -0.6533312 
H     4.8473925   -1.1418856    0.6469558 
H     4.0242877    1.3105584    0.4302856 
H     4.6196923    2.3069406   -0.9175293 
H     5.7519227    1.7621013    0.3584869 
H     1.5417234   -3.5094114   -2.5155541 
H     3.1602763   -4.8663894   -2.8814483 
H     3.5131082   -6.4567846   -3.6044618 
H     3.1048623   -6.3293728   -1.8663626 
H     1.7297648   -6.0926181   -5.3901148 
H     0.0496013   -5.6920578   -4.9183668 
H     1.3537355   -4.4921978   -4.6908225 
H     1.2546220   -8.1087697   -2.2419186 
H     1.7653724   -8.1581915   -3.9500333 
H     0.0550030   -7.8738575   -3.5512464 
H    -0.7789626   -7.0523111   -1.7075771 
H    -1.7841038   -3.3309487    0.2243826 
H    -2.6652264   -4.5209953    1.7519741 
H    -3.4903656   -6.0668600    2.0523779 
H    -1.7059270   -6.0062684    2.0287664 
H    -4.8320625   -5.7680579   -0.1167612 
H    -3.9758930   -5.5283079   -1.6708228 
H    -3.9815683   -4.2316214   -0.4409512 
H    -1.7600760   -7.9267148    0.2662334 
H    -2.7747756   -7.7465336   -1.1981199 
H    -3.5382031   -7.8764360    0.4033452 
