197
Energy =
C    -0.6600065   -3.1498841    1.7639405 
C    -0.6496197   -3.7094920    0.4488221 
C     0.5069580   -3.6834015   -0.3610050 
H    -1.6000751   -3.9936334   -0.0209167 
Pd   -0.0706075   -1.5803079    0.3054335 
P     0.3552759   -0.2791346   -1.5772194 
P    -0.0627194    0.2762633    1.7121380 
H     0.2618608   -3.2185307    2.3563722 
H     1.4772620   -3.5150025    0.1347105 
C    -4.2384283   -2.5001985    4.0766641 
C    -4.3290661   -2.6969421    2.6883374 
C    -3.1743682   -2.9069063    1.9293587 
C    -1.8979870   -2.9416713    2.5410990 
C    -1.8227701   -2.7486234    3.9390326 
C    -2.9804191   -2.5277655    4.6952483 
H    -5.1430356   -2.3304557    4.6695388 
H    -5.3063676   -2.6822161    2.1947397 
H    -3.2659294   -3.0347140    0.8450535 
H    -0.8455887   -2.7675090    4.4330939 
H    -2.8975706   -2.3809024    5.7766322 
C     0.7593067   -5.1813601   -4.3827535 
C     1.6858915   -4.2372357   -3.9134406 
C     1.6051699   -3.7655843   -2.6002934 
C     0.5817605   -4.2121266   -1.7336953 
C    -0.3359355   -5.1736112   -2.2133846 
C    -0.2428772   -5.6566526   -3.5234625 
H     0.8239087   -5.5530149   -5.4103434 
H     2.4731090   -3.8620732   -4.5754225 
H     2.3227737   -3.0181741   -2.2467710 
H    -1.1046815   -5.5750727   -1.5453171 
H    -0.9483463   -6.4179542   -3.8717886 
C    -1.3431411    5.1610581    3.5852575 
C    -2.7309628    4.7535689    3.0472941 
C    -3.1609042    5.7934008    1.9803296 
C    -3.7420442    4.7539364    4.2220109 
C    -2.7067354    3.3535877    2.4054769 
C    -1.5473137    2.5638370    2.3698020 
C    -3.8730493    2.8296998    1.8092520 
C    -3.9231414    1.5725873    1.1772949 
C    -5.2348285    1.0696233    0.5435294 
C    -4.9913145   -0.1506254   -0.3720950 
C    -5.8877231    2.1857934   -0.3084676 
C    -6.1993466    0.6625729    1.6878688 
C    -2.7486312    0.7980910    1.1768780 
C    -1.5760847    1.2910481    1.7694771 
C     0.3341767   -0.2033195    3.4375554 
C     1.3679211   -1.1417112    3.6306078 
C     1.7140676   -1.5768718    4.9196120 
C     2.8098674   -2.6308615    5.1689233 
C     2.1697720   -3.8620978    5.8615814 
C     3.4720957   -3.1012191    3.8563247 
C     3.9069810   -2.0269024    6.0819031 
C     0.9946510   -1.0322639    6.0054013 
C    -0.0498895   -0.1022543    5.8457273 
C    -0.3787267    0.2990865    4.5359726 
C    -0.7712713    0.4780744    7.0785238 
C    -1.2396757   -0.6622684    8.0163450 
C    -2.0051540    1.3173555    6.6808541 
C     0.2290853    1.3891265    7.8378001 
C     1.2808055    1.4645963    1.2425872 
C     2.4764707    1.4939600    1.9856370 
C     3.5153403    2.3659002    1.6382034 
C     3.3610349    3.2423161    0.5618982 
C     1.1153554    2.3369561    0.1313195 
C     2.1594628    3.2443604   -0.1611111 
C    -0.1210545    2.3934722   -0.7043287 
C    -0.8613824    3.5983882   -0.7211726 
O    -0.4175363    4.6743658    0.0243664 
C     0.2128815    5.7180992   -0.7478402 
C     1.7224445    5.4926403   -0.7976638 
O     2.0060725    4.1372948   -1.2052760 
C    -2.0520092    3.7192434   -1.4520367 
C    -2.4910202    2.6499374   -2.2368911 
C    -1.7473226    1.4652778   -2.2848797 
C    -0.5706580    1.3229155   -1.5236050 
C     2.0933888    0.1817422   -1.8811320 
C     2.4249360    1.2150409   -2.7804924 
C     3.7675106    1.5312496   -3.0286698 
C     4.1797235    2.6589907   -3.9934560 
C     4.9940553    3.7198155   -3.2085091 
C     2.9537452    3.3586959   -4.6177392 
C     5.0449971    2.0625568   -5.1327411 
C     4.7603178    0.7823174   -2.3528501 
C     4.4589227   -0.2405658   -1.4381406 
C     3.0974681   -0.5231714   -1.2061663 
C     5.5339506   -1.0472604   -0.6836289 
C     5.3925948   -0.7736847    0.8355399 
C     6.9631846   -0.6675152   -1.1217299 
C     5.3214601   -2.5590874   -0.9559670 
C    -0.2770961   -1.0761673   -3.0997587 
C     0.3435071   -0.9269012   -4.3501851 
C    -0.2441032   -1.4767448   -5.5025484 
C     0.3973281   -1.3349315   -6.8971402 
C     0.6388104   -2.7417120   -7.5015360 
C     1.7498352   -0.5924695   -6.8390256 
C    -0.5639367   -0.5345005   -7.8136093 
C    -1.4709008   -2.1568462   -5.3567610 
C    -2.1126983   -2.3309504   -4.1145297 
C    -1.4788738   -1.7965158   -2.9800714 
C    -3.4978660   -3.0008790   -4.0226778 
C    -3.5814804   -4.2353571   -4.9515905 
C    -3.8197143   -3.4568676   -2.5813951 
C    -4.5553443   -1.9523304   -4.4602569 
H    -1.3972962    6.1725967    4.0235739 
H    -0.9934943    4.4746862    4.3774484 
H    -0.5916515    5.1773351    2.7768268 
H    -3.1790316    6.8062523    2.4210413 
H    -2.4479701    5.7865319    1.1384249 
H    -4.1697300    5.5826099    1.5848776 
H    -3.7764789    5.7506756    4.6969828 
H    -3.4517850    4.0147229    4.9895755 
H    -4.7627639    4.5071064    3.8817289 
H    -0.6065361    2.9370536    2.7807998 
H    -4.7819835    3.4392867    1.8276324 
H    -5.9363212   -0.4513668   -0.8566055 
H    -4.2594084    0.0834391   -1.1656371 
H    -4.6197556   -1.0199110    0.1954485 
H    -6.8091723    1.8068606   -0.7845715 
H    -5.2008845    2.5259215   -1.1021312 
H    -6.1688172    3.0625379    0.2991080 
H    -5.7470693   -0.1224883    2.3178360 
H    -7.1499127    0.2786881    1.2751776 
H    -6.4307856    1.5262318    2.3355929 
H    -2.7217478   -0.1869959    0.7029222 
H     1.8930546   -1.5352443    2.7547525 
H     1.7160893   -3.5948140    6.8312571 
H     2.9344157   -4.6368274    6.0486281 
H     1.3800924   -4.3024811    5.2268239 
H     3.9651792   -2.2696124    3.3231334 
H     2.7408635   -3.5694238    3.1720568 
H     4.2437491   -3.8575064    4.0802596 
H     4.6964380   -2.7744234    6.2763581 
H     4.3732669   -1.1472102    5.6042815 
H     3.4980517   -1.7087425    7.0561260 
H     1.2572268   -1.3552000    7.0179599 
H    -1.1979453    0.9985070    4.3642569 
H    -1.9502103   -1.3312401    7.5010533 
H    -1.7475154   -0.2392797    8.9006905 
H    -0.3969546   -1.2747093    8.3795318 
H    -1.7270571    2.1982997    6.0757687 
H    -2.7349763    0.7199261    6.1059354 
H    -2.5097658    1.6877497    7.5896081 
H     1.1146501    0.8216438    8.1735719 
H     0.5776585    2.2126937    7.1900534 
H    -0.2530346    1.8286496    8.7292221 
H     2.5958374    0.8420422    2.8540924 
H     4.4420660    2.3676529    2.2207057 
H     4.1543125    3.9385154    0.2743999 
H    -0.2139623    5.7320834   -1.7670774 
H    -0.0171378    6.6761764   -0.2504533 
H     2.1789895    5.6837953    0.1904576 
H     2.1878399    6.1612415   -1.5422720 
H    -2.6124202    4.6572359   -1.4003571 
H    -3.4087189    2.7403003   -2.8265606 
H    -2.0807947    0.6482760   -2.9295314 
H     1.6217874    1.7816784   -3.2569189 
H     5.9042813    3.2876161   -2.7578356 
H     4.3751964    4.1496624   -2.4024931 
H     5.3080896    4.5353250   -3.8842802 
H     2.3453261    2.6583346   -5.2176018 
H     2.3118163    3.8074795   -3.8402580 
H     3.2915941    4.1650102   -5.2915085 
H     5.9629022    1.5876159   -4.7450771 
H     5.3491938    2.8573428   -5.8369445 
H     4.4778845    1.3001520   -5.6959535 
H     5.8083342    1.0239611   -2.5464285 
H     2.8045338   -1.2896780   -0.4797560 
H     6.1212752   -1.3782239    1.4048323 
H     5.5734567    0.2915237    1.0576898 
H     4.3809024   -1.0236002    1.1999667 
H     7.1221777   -0.8544302   -2.1983519 
H     7.6969768   -1.2743312   -0.5638144 
H     7.1849809    0.3944278   -0.9160327 
H     6.0995243   -3.1526648   -0.4441108 
H     4.3412033   -2.9088511   -0.5868432 
H     5.3755490   -2.7769273   -2.0369508 
H     1.2890213   -0.3862825   -4.4155850 
H     1.3357632   -3.3223694   -6.8735393 
H     1.0762768   -2.6522494   -8.5116734 
H    -0.2987305   -3.3170222   -7.5900896 
H     2.4793762   -1.1195409   -6.1984420 
H     2.1804121   -0.5258685   -7.8528301 
H     1.6368179    0.4377625   -6.4574076 
H    -1.5356242   -1.0450046   -7.9292858 
H    -0.1233361   -0.4162270   -8.8195834 
H    -0.7540893    0.4706652   -7.3980248 
H    -1.9475905   -2.5669389   -6.2521594 
H    -1.9237236   -1.9137525   -1.9861384 
H    -4.5655558   -4.7233976   -4.8418528 
H    -2.7980193   -4.9698256   -4.7000458 
H    -3.4686993   -3.9636758   -6.0147383 
H    -3.8973726   -2.6046220   -1.8841408 
H    -4.7900437   -3.9819844   -2.5640234 
H    -3.0484119   -4.1501806   -2.2033196 
H    -5.5711338   -2.3851011   -4.4157499 
H    -4.3703465   -1.6108908   -5.4936554 
H    -4.5268331   -1.0686046   -3.7977098 
