206
Energy =
C     0.2015089    1.4238874   -3.5313999 
C    -0.9150558    0.5561438   -3.7468620 
C    -2.1321701    0.7849184   -3.0644926 
H    -0.7787095   -0.3725885   -4.3146977 
Pd   -0.4040839    0.4806760   -1.6113887 
P    -1.4781252   -0.8442843   -0.0111094 
P     1.3281152    1.1286326   -0.2022834 
H    -0.0243772    2.4750334   -3.3067975 
H    -2.2828890    1.7981032   -2.6595360 
C     4.1193147    0.8055434   -5.2115122 
C     3.2818528   -0.2967134   -4.9711815 
C     2.0138318   -0.1115302   -4.4114840 
C     1.5460227    1.1840978   -4.0896810 
C     2.4044685    2.2805659   -4.3248696 
C     3.6743094    2.0942093   -4.8831912 
H     5.1110130    0.6581648   -5.6516371 
H     3.6225978   -1.3070523   -5.2192039 
H     1.3828642   -0.9835718   -4.2100586 
H     2.0675930    3.2890372   -4.0685460 
H     4.3140734    2.9626406   -5.0676864 
C    -5.7752215   -1.4817822   -3.2201944 
C    -5.6837565   -0.3206453   -2.4381211 
C    -4.4862839    0.3996683   -2.3961119 
C    -3.3548154   -0.0252650   -3.1315135 
C    -3.4587186   -1.2057882   -3.9019492 
C    -4.6564039   -1.9245161   -3.9446341 
H    -6.7155608   -2.0403966   -3.2668607 
H    -6.5482762    0.0275987   -1.8634360 
H    -4.4183284    1.3046480   -1.7837879 
H    -2.6010831   -1.5611763   -4.4798778 
H    -4.7183568   -2.8358546   -4.5477366 
C    -5.9323795   -1.8822736    3.1912849 
C    -5.3333658   -0.5729296    3.7612878 
C    -6.4958903    0.3080256    4.2652977 
C    -4.4161747   -0.9099988    4.9621747 
C    -4.4984022    0.1289300    2.6696627 
C    -3.4864202   -0.5836621    1.9901319 
C    -4.7018440    1.4748845    2.3161112 
C    -3.9409161    2.1360587    1.3264550 
C    -4.2022880    3.6203445    1.0086297 
C    -3.1751778    4.1781002    0.0001028 
C    -5.6232049    3.7617483    0.4047410 
C    -4.1049036    4.4559080    2.3102770 
C    -2.9732350    1.3860741    0.6466496 
C    -2.7561859    0.0303953    0.9607810 
C    -2.2158466   -2.2787569   -0.8936282 
C    -1.4134226   -2.8364868   -1.9125091 
C    -1.8241129   -3.9862187   -2.6052317 
C    -0.9816351   -4.6332676   -3.7220227 
C    -1.8626640   -4.8855516   -4.9720591 
C    -0.4233525   -5.9824784   -3.2000407 
C     0.1981895   -3.7356891   -4.1474557 
C    -3.0571664   -4.5589664   -2.2360827 
C    -3.9005923   -4.0068896   -1.2551675 
C    -3.4631035   -2.8436548   -0.5876228 
C    -5.2204693   -4.7138959   -0.8863010 
C    -5.9359822   -5.2568480   -2.1475853 
C    -4.8716238   -5.9007733    0.0511613 
C    -6.1906255   -3.7646575   -0.1522227 
C    -0.3588165   -1.6262739    1.2296440 
C    -0.1486683   -3.0197293    1.2178680 
C     0.7264313   -3.5989962    2.1422785 
C     1.3999837   -2.8115175    3.0807726 
C     0.3130509   -0.8081976    2.1699608 
C     1.1930274   -1.4204408    3.1012044 
C     0.0870061    0.6633950    2.3139973 
C    -0.5774224    1.0934719    3.4949180 
O    -0.9980178    0.1035937    4.3336346 
C    -1.2358956    0.4316001    5.7164734 
C     0.0550393    0.7729466    6.4798986 
C     0.7499698   -0.4345347    7.1341789 
C     1.2497778   -1.5458401    6.1939588 
C     2.3428957   -1.1146973    5.2031912 
O     1.8095122   -0.5753664    3.9785409 
C    -0.7748819    2.4620419    3.7506497 
C    -0.2860123    3.4105541    2.8481740 
C     0.3871237    3.0127813    1.6893149 
C     0.5696114    1.6426813    1.4091561 
C     2.1822148    2.6329670   -0.8259858 
C     1.3767797    3.6866127   -1.3048928 
C     1.9513104    4.8706425   -1.7945007 
C     1.1037706    6.0507256   -2.3098580 
C    -0.4077380    5.7445811   -2.2573473 
C     1.4882138    6.3626094   -3.7788664 
C     1.3830765    7.2927703   -1.4245432 
C     3.3592708    4.9567313   -1.8001651 
C     4.1930230    3.9205677   -1.3402488 
C     3.5806070    2.7470894   -0.8580478 
C     5.7249999    4.0967340   -1.3608186 
C     6.1016381    5.3810662   -0.5779275 
C     6.4502957    2.9026980   -0.7055131 
C     6.2087733    4.2216300   -2.8276215 
C     2.6344966   -0.0834690    0.1965589 
C     3.5546963    0.1819445    1.2328029 
C     4.6185246   -0.6993472    1.4729573 
C     5.6983850   -0.4277233    2.5384559 
C     5.3763298    0.8310914    3.3705624 
C     5.8113756   -1.6406906    3.4954780 
C     7.0602510   -0.2191333    1.8253521 
C     4.7056699   -1.8621604    0.6736698 
C     3.7871501   -2.1677740   -0.3431808 
C     2.7462114   -1.2447606   -0.5795677 
C     3.8801995   -3.4541082   -1.1874812 
C     5.1330320   -4.2889993   -0.8510438 
C     3.9342659   -3.0758665   -2.6877778 
C     2.6261547   -4.3219841   -0.9140856 
H    -6.5603451   -1.6756334    2.3076740 
H    -5.1451393   -2.5970332    2.8962042 
H    -6.5601525   -2.3776912    3.9529856 
H    -7.1863182    0.5797193    3.4473265 
H    -6.1333110    1.2374645    4.7385813 
H    -7.0756712   -0.2441047    5.0249497 
H    -4.9748573   -1.4845093    5.7226399 
H    -3.5411985   -1.5055152    4.6500310 
H    -4.0485646    0.0164712    5.4334200 
H    -3.2595537   -1.6182929    2.2668854 
H    -5.4770201    2.0432021    2.8354870 
H    -3.3675066    5.2503066   -0.1762648 
H    -3.2383537    3.6690396   -0.9786611 
H    -2.1432281    4.0729767    0.3788977 
H    -5.7133978    3.1783887   -0.5289588 
H    -5.8394054    4.8197843    0.1719698 
H    -6.3971156    3.4029212    1.1051481 
H    -4.8570071    4.1441528    3.0550550 
H    -3.1059960    4.3477842    2.7661509 
H    -4.2759022    5.5249210    2.0910807 
H    -2.3496908    1.8402817   -0.1285328 
H    -0.4607012   -2.3513922   -2.1517731 
H    -1.2564757   -5.3350604   -5.7781220 
H    -2.2901287   -3.9405755   -5.3515530 
H    -2.6966914   -5.5755705   -4.7606092 
H     0.1851366   -6.4761675   -3.9790382 
H     0.2117725   -5.8244621   -2.3114413 
H    -1.2394025   -6.6701393   -2.9178680 
H     0.9037723   -3.5563266   -3.3200872 
H    -0.1579985   -2.7587753   -4.5204203 
H     0.7635634   -4.2181863   -4.9630274 
H    -3.3811309   -5.4688666   -2.7488083 
H    -4.0921323   -2.3752847    0.1716558 
H    -6.8978801   -5.7166872   -1.8616997 
H    -5.3460008   -6.0329462   -2.6638590 
H    -6.1416497   -4.4463523   -2.8670649 
H    -4.1941278   -6.6151140   -0.4490016 
H    -4.3713897   -5.5413451    0.9678724 
H    -5.7884502   -6.4427265    0.3456005 
H    -7.1479350   -4.2804442    0.0360046 
H    -5.7925042   -3.4491978    0.8247911 
H    -6.3958598   -2.8589216   -0.7482430 
H    -0.6752676   -3.6507807    0.4981106 
H     0.8818081   -4.6827578    2.1374926 
H     2.0767853   -3.2839259    3.7960709 
H    -1.7143252   -0.4707483    6.1282020 
H    -1.9757582    1.2501356    5.7830701 
H     0.7434439    1.3005680    5.7937069 
H    -0.1972497    1.4969606    7.2763912 
H     1.6078466   -0.0635149    7.7274725 
H     0.0525208   -0.8873065    7.8650484 
H     1.6587255   -2.3629902    6.8163782 
H     0.4123596   -1.9872013    5.6216033 
H     2.9586496   -0.2975058    5.6130965 
H     3.0270534   -1.9516898    4.9758146 
H    -1.2928261    2.7905207    4.6541996 
H    -0.4206424    4.4768332    3.0578502 
H     0.7888406    3.7721471    1.0155775 
H     0.2892794    3.5683720   -1.2878326 
H    -0.9763957    6.6084334   -2.6420713 
H    -0.6712887    4.8710617   -2.8812327 
H    -0.7521924    5.5509447   -1.2268724 
H     0.9019997    7.2207190   -4.1525568 
H     1.2819844    5.4975301   -4.4338238 
H     2.5571711    6.6174271   -3.8780156 
H     0.7856951    8.1540676   -1.7731280 
H     2.4470154    7.5840100   -1.4566241 
H     1.1177971    7.0903448   -0.3718016 
H     3.8242826    5.8718356   -2.1814120 
H     4.1912659    1.9143501   -0.5062823 
H     5.7488279    5.3217649    0.4667178 
H     7.1985235    5.5098673   -0.5662341 
H     5.6644864    6.2854451   -1.0347899 
H     6.1506205    2.7796066    0.3501345 
H     7.5406382    3.0718612   -0.7269159 
H     6.2493531    1.9553432   -1.2358366 
H     7.2993366    4.3948635   -2.8570397 
H     5.7177210    5.0626064   -3.3478013 
H     5.9904034    3.2963740   -3.3872633 
H     3.4228206    1.0806755    1.8397068 
H     4.3952690    0.7449785    3.8686051 
H     5.3647892    1.7407497    2.7442804 
H     6.1467569    0.9734906    4.1478945 
H     6.1071028   -2.5597388    2.9613739 
H     6.5734851   -1.4452915    4.2705778 
H     4.8494192   -1.8349895    3.9976850 
H     7.3559541   -1.1135632    1.2500905 
H     7.8529575   -0.0156599    2.5675034 
H     7.0122868    0.6331567    1.1269083 
H     5.5308626   -2.5532649    0.8608045 
H     2.0077708   -1.4221181   -1.3695906 
H     5.1581966   -5.1907056   -1.4871402 
H     6.0626465   -3.7225380   -1.0360864 
H     5.1323470   -4.6250549    0.2008843 
H     4.8169168   -2.4497439   -2.9044197 
H     3.0411327   -2.5090110   -2.9949506 
H     3.9893381   -3.9861089   -3.3114018 
H     2.5970736   -4.6408889    0.1412410 
H     1.6936748   -3.7678723   -1.1158430 
H     2.6374118   -5.2239562   -1.5520596 
