200
Energy =
C     0.5098597   -2.9383724    2.2785699 
C     0.3567695   -1.9319110    3.2856387 
C    -0.8787172   -1.2579159    3.4234131 
H     1.2348674   -1.5736305    3.8371256 
Pd   -0.0144623   -0.9994829    1.3312095 
P    -0.4992201    1.2490349    0.9660653 
P     0.2301477   -1.4612846   -0.9313327 
H    -0.3828334   -3.5244834    2.0216530 
H    -1.7567309   -1.7628849    2.9903305 
C     4.2131535   -4.9215512    1.3247533 
C     4.2380101   -3.6544117    1.9313049 
C     3.0443713   -2.9928256    2.2365244 
C     1.7929020   -3.5899538    1.9539110 
C     1.7846158   -4.8603154    1.3356974 
C     2.9799352   -5.5190208    1.0266222 
H     5.1495856   -5.4361454    1.0858473 
H     5.1960466   -3.1779224    2.1628678 
H     3.0850501   -1.9956947    2.6888493 
H     0.8274652   -5.3317715    1.0944113 
H     2.9441959   -6.5059825    0.5536216 
C    -1.9835221    1.9476496    6.0571484 
C    -2.9215834    1.3752463    5.1853045 
C    -2.5386688    0.3312716    4.3383646 
C    -1.2122315   -0.1615776    4.3409084 
C    -0.2768311    0.4326503    5.2187744 
C    -0.6605662    1.4758696    6.0662435 
H    -2.2825243    2.7574774    6.7301677 
H    -3.9540046    1.7395882    5.1677736 
H    -3.2730262   -0.1118920    3.6583069 
H     0.7565891    0.0758585    5.2428028 
H     0.0770842    1.9270041    6.7371137 
C     3.3986022    2.2614551    5.9511037 
C     3.4318672    2.2808263    4.4018721 
C     3.9068206    0.8935329    3.9179385 
C     4.4437183    3.3503621    3.9151146 
C     2.0375332    2.6386616    3.8507501 
C     1.4032302    1.8721571    2.8606202 
C     1.3561830    3.7790020    4.3244988 
C     0.0699763    4.1464064    3.8837079 
C    -0.6048575    5.4269391    4.4140387 
C    -2.1186877    5.4462257    4.1033693 
C    -0.4215647    5.5542474    5.9462650 
C     0.0673624    6.6395145    3.7168984 
C    -0.5398415    3.3482555    2.8963431 
C     0.1336331    2.2379576    2.3700175 
C    -2.2718269    1.5900044    0.7105866 
C    -2.7291443    2.8515749    0.2932201 
C    -4.0993683    3.0655822    0.0678854 
C    -4.6498276    4.4245222   -0.4037587 
C    -5.5592274    5.0132232    0.7045779 
C    -5.4694988    4.2160179   -1.7028772 
C    -3.5166120    5.4282425   -0.7051147 
C    -4.9776488    1.9801179    0.2682974 
C    -4.5424206    0.6940784    0.6453928 
C    -3.1673090    0.5190857    0.8648255 
C    -5.5488618   -0.4598462    0.8184001 
C    -6.4123473   -0.1779668    2.0749356 
C    -6.4632725   -0.5569610   -0.4283838 
C    -4.8344604   -1.8187591    0.9950984 
C     0.3339968    2.0182198   -0.4918361 
C     1.3562238    2.9718893   -0.3160608 
C     1.9869110    3.5430468   -1.4279672 
C     1.6109812    3.1771079   -2.7240465 
C    -0.0630496    1.6374337   -1.7967876 
C     0.5827042    2.2395553   -2.9036016 
C    -1.1954366    0.7078045   -2.0968539 
C    -2.3229810    1.2719496   -2.7453261 
O    -2.3155630    2.6271297   -2.9501338 
C    -2.4841552    3.1368768   -4.2928449 
C    -1.1873116    3.8041705   -4.7597580 
C    -0.0775306    2.8256391   -5.1550806 
O     0.1668055    1.8275491   -4.1451837 
C    -3.4207962    0.4834750   -3.1204530 
C    -3.3818551   -0.8960609   -2.8953670 
C    -2.2716434   -1.4812346   -2.2747078 
C    -1.1800302   -0.6915847   -1.8590316 
C     1.7429618   -0.8787956   -1.7646268 
C     1.8023160   -0.8698437   -3.1727205 
C     2.9760550   -0.4728040   -3.8254170 
C     3.0986367   -0.4604261   -5.3604706 
C     4.2079219   -1.4566573   -5.7853020 
C     3.4684490    0.9697909   -5.8293704 
C     1.7775394   -0.8699110   -6.0451027 
C     4.0740156   -0.0767414   -3.0263130 
C     4.0375076   -0.0607128   -1.6218328 
C     2.8428131   -0.4767573   -0.9965477 
C     5.2292963    0.4052136   -0.7612871 
C     4.8361682    1.7183829   -0.0379365 
C     6.4934721    0.6688797   -1.6051640 
C     5.5609506   -0.6809992    0.2911122 
C     0.1120249   -3.2576198   -1.2762490 
C    -0.9428082   -3.9767562   -0.6837557 
C    -1.0878013   -5.3579265   -0.8973029 
C    -2.2936701   -6.0937560   -0.2784274 
C    -2.3478564   -5.8262322    1.2476879 
C    -2.2237227   -7.6184454   -0.5025653 
C    -3.5889451   -5.5517631   -0.9387816 
C    -0.1171893   -6.0037777   -1.6928336 
C     0.9647878   -5.3157699   -2.2772696 
C     1.0618369   -3.9280720   -2.0594443 
C     1.9978078   -6.0074505   -3.1888915 
C     3.4331036   -5.5405679   -2.8362649 
C     1.9418100   -7.5447736   -3.0644081 
C     1.6813538   -5.6068838   -4.6550514 
H     4.3954972    2.0028322    6.3493448 
H     2.6774433    1.5111006    6.3207513 
H     3.1165115    3.2412168    6.3720083 
H     4.8906843    0.6608118    4.3599129 
H     3.2053379    0.0972724    4.2264999 
H     4.0202399    0.8509174    2.8217618 
H     5.4558028    3.1270738    4.2978017 
H     4.1611796    4.3581524    4.2655928 
H     4.4869812    3.3724386    2.8119674 
H     1.8869032    0.9803884    2.4475835 
H     1.8463206    4.4018245    5.0787666 
H    -2.5788124    6.3427709    4.5530486 
H    -2.3189679    5.4855592    3.0179896 
H    -2.6251411    4.5555613    4.5149100 
H    -0.8436654    4.6798648    6.4696317 
H     0.6399521    5.6450513    6.2327793 
H    -0.9374138    6.4587826    6.3128607 
H     1.1490359    6.6740535    3.9361784 
H    -0.0564675    6.5787570    2.6211321 
H    -0.3852058    7.5850726    4.0660743 
H    -1.5373564    3.5917143    2.5266513 
H    -2.0032644    3.6471878    0.1121403 
H    -4.9870199    5.1722219    1.6358884 
H    -6.4038522    4.3407489    0.9351168 
H    -5.9764806    5.9847311    0.3843017 
H    -4.8394561    3.7459365   -2.4769696 
H    -6.3478751    3.5689490   -1.5376498 
H    -5.8358213    5.1854817   -2.0846335 
H    -2.9240228    5.6612657    0.1976403 
H    -3.9473189    6.3763864   -1.0706169 
H    -2.8333240    5.0380857   -1.4796016 
H    -6.0477589    2.1394693    0.0996958 
H    -2.7598718   -0.4600077    1.1306104 
H    -5.7814393   -0.1133902    2.9793963 
H    -7.1512939   -0.9852305    2.2263842 
H    -6.9616907    0.7744415    1.9766240 
H    -5.8627226   -0.7252091   -1.3384482 
H    -7.1713628   -1.3969886   -0.3162603 
H    -7.0580520    0.3603655   -0.5758118 
H    -4.1710415   -2.0371052    0.1394336 
H    -5.5812073   -2.6282922    1.0638642 
H    -4.2302916   -1.8520518    1.9197815 
H     1.6539149    3.2782279    0.6894987 
H     2.7799782    4.2832395   -1.2807270 
H     2.1107506    3.6160069   -3.5919602 
H    -2.7866610    2.3190737   -4.9729689 
H    -3.3001980    3.8787999   -4.2540875 
H    -1.4058589    4.4415777   -5.6372149 
H    -0.8364864    4.4752908   -3.9549084 
H     0.8524673    3.3707203   -5.4066997 
H    -0.3668844    2.2358228   -6.0401796 
H    -4.2916107    0.9560595   -3.5844671 
H    -4.2224482   -1.5255385   -3.2050060 
H    -2.2518066   -2.5638240   -2.1314484 
H     0.9172080   -1.1629584   -3.7417318 
H     4.3137350   -1.4667911   -6.8849069 
H     5.1871921   -1.1856751   -5.3539116 
H     3.9607170   -2.4805331   -5.4523577 
H     4.4347335    1.3027245   -5.4131769 
H     3.5468862    1.0040989   -6.9306064 
H     2.6928890    1.6871919   -5.5114977 
H     0.9527490   -0.1951440   -5.7581326 
H     1.8970332   -0.8235412   -7.1414114 
H     1.4881660   -1.9042538   -5.7868349 
H     4.9907680    0.2367035   -3.5316381 
H     2.7542154   -0.4853719    0.0956583 
H     4.6452428    2.5228691   -0.7677824 
H     3.9185918    1.5914822    0.5617225 
H     5.6479490    2.0437549    0.6373119 
H     7.3217777    0.9785295   -0.9446572 
H     6.3365230    1.4781749   -2.3398149 
H     6.8163033   -0.2370684   -2.1477755 
H     5.8101490   -1.6401856   -0.1946588 
H     4.7123970   -0.8616054    0.9706153 
H     6.4231403   -0.3660148    0.9056517 
H    -1.6594629   -3.4442326   -0.0474840 
H    -1.4257242   -6.1740059    1.7457277 
H    -3.2021679   -6.3616590    1.6980381 
H    -2.4779035   -4.7526311    1.4729691 
H    -3.0951744   -8.1041305   -0.0307772 
H    -2.2416692   -7.8758478   -1.5758923 
H    -1.3128525   -8.0538601   -0.0550202 
H    -3.7076282   -4.4677018   -0.7635109 
H    -4.4761237   -6.0606303   -0.5211047 
H    -3.5732632   -5.7222841   -2.0294317 
H    -0.2070916   -7.0776393   -1.8598321 
H     1.8872493   -3.3637587   -2.4996376 
H     3.6716279   -5.7480833   -1.7796519 
H     4.1646492   -6.0714299   -3.4704798 
H     3.5726289   -4.4592752   -3.0079281 
H     2.7240062   -7.9981771   -3.6971001 
H     0.9724749   -7.9531595   -3.3993794 
H     2.1152555   -7.8715368   -2.0233812 
H     1.7413199   -4.5117626   -4.7881043 
H     0.6652722   -5.9301327   -4.9412580 
H     2.4033815   -6.0769876   -5.3468286 
