206
Energy =
C    -0.7621280   -3.6106827    1.1071867 
C    -2.0874975   -3.2679331    0.7515430 
C    -2.4183752   -2.9732882   -0.6078381 
H    -2.8223156   -3.0715175    1.5422215 
Pd   -0.8546431   -1.5611188    0.1124769 
P    -0.7556684   -0.0047269   -1.6184766 
P     0.6724214   -0.4249080    1.4463543 
H    -0.1123651   -3.9672959    0.2922563 
H    -1.8436612   -3.4956360   -1.3847898 
C     0.8563828   -4.4833844    4.9899178 
C    -0.4965136   -4.1256659    4.8726038 
C    -1.0447228   -3.8345904    3.6199541 
C    -0.2474011   -3.8934329    2.4540970 
C     1.1160853   -4.2432052    2.5918831 
C     1.6637770   -4.5347930    3.8443127 
H     1.2783232   -4.7228369    5.9710366 
H    -1.1279329   -4.0723556    5.7649435 
H    -2.1025889   -3.5661744    3.5493328 
H     1.7498106   -4.2818823    1.7024506 
H     2.7216104   -4.8057084    3.9254705 
C    -6.2734850   -1.5841008   -1.9357239 
C    -5.8771394   -1.3728120   -0.6045580 
C    -4.6222766   -1.8046074   -0.1640054 
C    -3.7360133   -2.4721504   -1.0420560 
C    -4.1438680   -2.6665152   -2.3807009 
C    -5.3990046   -2.2308977   -2.8209017 
H    -7.2575249   -1.2469870   -2.2775734 
H    -6.5508955   -0.8649433    0.0929862 
H    -4.3235531   -1.6128530    0.8723194 
H    -3.4669692   -3.1663822   -3.0801385 
H    -5.6959219   -2.4063772   -3.8594832 
C    -3.4204984    0.7981343    5.8361048 
C    -3.1504297   -0.5670716    5.1519940 
C    -3.5361249   -1.7169783    6.1166343 
C    -4.0432635   -0.6786843    3.8980365 
C    -1.6512470   -0.6509700    4.8029696 
C    -1.1822678   -0.6127729    3.4804460 
C    -0.6904720   -0.7502090    5.8301690 
C     0.6908938   -0.8591140    5.5829253 
C     1.6932544   -0.9212599    6.7524844 
C     3.0795803   -1.4220528    6.2898380 
C     1.8430902    0.5146413    7.3220047 
C     1.1840077   -1.8619103    7.8717247 
C     1.1241723   -0.8301953    4.2425682 
C     0.1988704   -0.6764421    3.2016345 
C     2.4184270   -0.9067492    1.2088925 
C     3.4582860   -0.2285662    1.8748288 
C     4.7865219   -0.6572036    1.7311429 
C     5.9456137   -0.0077377    2.5124438 
C     5.4995901    1.2854528    3.2280669 
C     7.1134975    0.3416263    1.5568439 
C     6.4417420   -1.0227471    3.5761551 
C     5.0398538   -1.7516238    0.8723525 
C     4.0298030   -2.4143692    0.1527921 
C     2.7051925   -1.9730734    0.3437319 
C     4.3213408   -3.5654418   -0.8332007 
C     5.8045935   -3.9896608   -0.8107743 
C     3.4578958   -4.8014622   -0.4767759 
C     3.9632200   -3.0950732   -2.2657117 
C     0.6367899    1.4138437    1.2816472 
C     0.1284879    2.2127868    2.3262107 
C     0.0792413    3.6024892    2.1803200 
C     0.5334101    4.2151077    1.0088300 
C     1.1006749    2.0119223    0.0865007 
C     1.0523642    3.4266814   -0.0333388 
C     1.7280170    1.2596722   -1.0420450 
C     3.1125385    1.4887342   -1.2661534 
O     3.7364106    2.2713450   -0.3397192 
C     5.0018535    2.8684957   -0.6778490 
C     4.8700459    3.9840684   -1.7275853 
C     4.5639571    5.3807749   -1.1584685 
C     3.2389222    5.5534492   -0.3941919 
C     1.9662542    5.3159031   -1.2255635 
O     1.5281592    3.9429518   -1.2046003 
C     3.7621273    0.9285761   -2.3803976 
C     3.0323408    0.1500601   -3.2826924 
C     1.6733265   -0.1026397   -3.0747517 
C     1.0148515    0.4387174   -1.9513731 
C    -1.6394434    1.5779500   -1.4088719 
C    -1.3987789    2.6395552   -2.3056478 
C    -2.1274413    3.8321527   -2.1974869 
C    -1.9530673    4.9997235   -3.1875926 
C    -1.6697757    6.3099784   -2.4110302 
C    -3.2646504    5.1608432   -3.9999087 
C    -0.7884185    4.7482258   -4.1683566 
C    -3.0716841    3.9356090   -1.1502127 
C    -3.3091730    2.9073906   -0.2234236 
C    -2.5785428    1.7099399   -0.3774329 
C    -4.3093547    3.0531652    0.9409955 
C    -3.5210250    3.0314703    2.2750699 
C    -5.1089852    4.3703264    0.8670508 
C    -5.3102847    1.8726358    0.9116855 
C    -1.3367538   -0.7437047   -3.1949655 
C    -2.1987824   -0.0793704   -4.0796410 
C    -2.5875797   -0.6886757   -5.2891987 
C    -3.4975715    0.0241939   -6.3100881 
C    -2.7599920    0.1092034   -7.6716922 
C    -4.8122189   -0.7780452   -6.4811258 
C    -3.8537169    1.4577570   -5.8625873 
C    -2.0997669   -1.9808067   -5.5629197 
C    -1.2403225   -2.6800307   -4.6890845 
C    -0.8712334   -2.0389321   -3.4967150 
C    -0.7409433   -4.0917327   -5.0535757 
C     0.1722944   -4.6838022   -3.9582781 
C     0.0656392   -4.0169996   -6.3754418 
C    -1.9581420   -5.0340204   -5.2373400 
H    -2.8290336    0.9057873    6.7617350 
H    -3.1543435    1.6312493    5.1624999 
H    -4.4889824    0.8929801    6.1008047 
H    -2.9680789   -1.6746408    7.0612245 
H    -3.3512803   -2.7011052    5.6511853 
H    -4.6089960   -1.6552631    6.3703411 
H    -5.1065503   -0.6447234    4.1909578 
H    -3.8709745    0.1482154    3.1897512 
H    -3.8733002   -1.6328054    3.3672617 
H    -1.8814285   -0.5235512    2.6417295 
H    -1.0365892   -0.7542912    6.8679684 
H     3.7511481   -1.5186524    7.1601004 
H     3.5570213   -0.7185615    5.5858938 
H     3.0087852   -2.4073785    5.7968840 
H     2.2142921    1.2066705    6.5453244 
H     2.5569234    0.5232037    8.1654241 
H     0.8746212    0.8999677    7.6864654 
H     0.2419387   -1.5038224    8.3205534 
H     1.0136085   -2.8809585    7.4857948 
H     1.9306438   -1.9194572    8.6829132 
H     2.1855476   -0.9169504    4.0048211 
H     3.2138883    0.6371235    2.4942954 
H     6.3635332    1.7486828    3.7348678 
H     4.7340104    1.0860954    3.9987100 
H     5.0854121    2.0188307    2.5138519 
H     7.9371361    0.8126773    2.1218006 
H     7.5238161   -0.5533372    1.0589695 
H     6.7845768    1.0463843    0.7750338 
H     6.8073839   -1.9513190    3.1041800 
H     5.6272137   -1.2923982    4.2707166 
H     7.2704977   -0.5894158    4.1644712 
H     6.0731444   -2.0880321    0.7598339 
H     1.8768939   -2.4445547   -0.1974434 
H     5.9636777   -4.8211697   -1.5188046 
H     6.1145507   -4.3367313    0.1907299 
H     6.4713301   -3.1638991   -1.1151367 
H     3.6679794   -5.1514135    0.5489960 
H     2.3780896   -4.5836617   -0.5551965 
H     3.6759744   -5.6307194   -1.1725722 
H     4.1318563   -3.9114140   -2.9911719 
H     2.9073337   -2.7820373   -2.3368447 
H     4.5844579   -2.2323125   -2.5589422 
H    -0.2162142    1.7543023    3.2553802 
H    -0.3111938    4.2199374    2.9957174 
H     0.4916382    5.3025163    0.9149224 
H     5.7064076    2.0840052   -1.0094196 
H     5.3800155    3.2612938    0.2800625 
H     5.8228245    4.0421011   -2.2855958 
H     4.1021858    3.6831048   -2.4647018 
H     5.3914082    5.6744486   -0.4841986 
H     4.5853548    6.1065749   -1.9941037 
H     3.2061939    4.8924333    0.4919973 
H     3.2031231    6.5873444   -0.0044231 
H     1.1441348    5.9743608   -0.8916289 
H     2.1346540    5.5281441   -2.2940883 
H     4.8246179    1.1086937   -2.5574865 
H     3.5318463   -0.2677612   -4.1627239 
H     1.1232027   -0.7056406   -3.7998730 
H    -0.6350877    2.5170110   -3.0771617 
H    -1.5226750    7.1470984   -3.1162620 
H    -2.5034770    6.5812767   -1.7412595 
H    -0.7594548    6.2104633   -1.7964992 
H    -3.1685562    5.9909858   -4.7225434 
H    -4.1224859    5.3814954   -3.3411470 
H    -3.4948391    4.2384015   -4.5601420 
H    -0.6641987    5.6208291   -4.8326555 
H    -0.9776911    3.8688124   -4.8092970 
H     0.1616558    4.5839677   -3.6311538 
H    -3.6390848    4.8648513   -1.0598990 
H    -2.7280200    0.8693305    0.3094961 
H    -2.8387663    3.8957977    2.3372932 
H    -4.2158049    3.0711967    3.1332573 
H    -2.9065581    2.1199071    2.3693424 
H    -4.4517494    5.2549730    0.9362793 
H    -5.8192877    4.4194024    1.7104248 
H    -5.6921186    4.4409934   -0.0680122 
H    -6.0329658    1.9631074    1.7422484 
H    -4.7982101    0.9028044    1.0154978 
H    -5.8707169    1.8540388   -0.0388697 
H    -2.5642017    0.9155322   -3.8206125 
H    -2.5282017   -0.8907764   -8.0768642 
H    -1.8107873    0.6640532   -7.5695752 
H    -3.3895610    0.6331722   -8.4126749 
H    -5.3728639   -0.8101550   -5.5315745 
H    -5.4534419   -0.3024723   -7.2444866 
H    -4.6182805   -1.8164362   -6.8015992 
H    -4.4040315    1.4662060   -4.9053159 
H    -4.4968625    1.9351208   -6.6217790 
H    -2.9501110    2.0825573   -5.7490408 
H    -2.3994402   -2.4653463   -6.4981880 
H    -0.2067411   -2.5373649   -2.7845949 
H     0.5029692   -5.6934906   -4.2563043 
H     1.0766226   -4.0701442   -3.7988475 
H    -0.3568381   -4.7814737   -2.9926426 
H     0.9367259   -3.3472886   -6.2645672 
H    -0.5513409   -3.6373505   -7.2078859 
H     0.4329384   -5.0198528   -6.6575196 
H    -2.5428758   -5.1097345   -4.3032494 
H    -2.6338056   -4.6778285   -6.0335754 
H    -1.6188545   -6.0484841   -5.5122404 
