206
Energy =
C    -1.8458418   -3.2440235    1.5484450 
C    -3.0245408   -2.5804498    1.0822223 
C    -3.2793778   -2.4173976   -0.2989177 
H    -3.6591767   -2.0508789    1.8048459 
Pd   -1.2858331   -1.4830142    0.3166692 
P    -1.3782413    0.5440394   -0.8643491 
P     0.8532357   -1.0195720    1.0820723 
H    -1.4485701   -4.0673599    0.9367200 
H    -2.7857633   -3.1235201   -0.9855163 
C    -0.5531152   -3.2195173    5.6587984 
C    -1.3368292   -2.1633862    5.1641014 
C    -1.7706460   -2.1725747    3.8347103 
C    -1.4435880   -3.2434149    2.9698601 
C    -0.6664173   -4.3020558    3.4871539 
C    -0.2196358   -4.2880536    4.8139223 
H    -0.2043108   -3.2068276    6.6965687 
H    -1.6011149   -1.3217593    5.8137410 
H    -2.3435400   -1.3208966    3.4529570 
H    -0.4030412   -5.1396120    2.8343854 
H     0.3989521   -5.1114041    5.1849582 
C    -6.5562090   -0.2828418   -2.0864467 
C    -6.1585075    0.0276774   -0.7757363 
C    -5.0979633   -0.6602264   -0.1815408 
C    -4.4091898   -1.6752618   -0.8818778 
C    -4.8148587   -1.9696197   -2.2021033 
C    -5.8771197   -1.2820086   -2.7990518 
H    -7.3889933    0.2562012   -2.5495744 
H    -6.6730510    0.8158841   -0.2160342 
H    -4.7911884   -0.3918426    0.8298495 
H    -4.2869354   -2.7476901   -2.7620393 
H    -6.1692394   -1.5222485   -3.8262331 
C     1.8979866   -6.1008413    0.4112042 
C     2.7724169   -5.8878233    1.6653713 
C     2.4107518   -6.9773926    2.7060552 
C     4.2618216   -6.0307973    1.2552998 
C     2.5714176   -4.4892431    2.2787095 
C     1.7780979   -3.5093942    1.6657343 
C     3.2219652   -4.1410999    3.4798259 
C     3.1161016   -2.8660949    4.0654778 
C     3.8745886   -2.5526061    5.3699412 
C     3.5296170   -1.1509833    5.9167956 
C     3.5027159   -3.5987303    6.4512844 
C     5.3980214   -2.6142770    5.0862327 
C     2.3404237   -1.8954683    3.4020137 
C     1.6702237   -2.2172223    2.2135121 
C     2.2102357   -0.9448921   -0.1561305 
C     3.4842009   -0.5495938    0.2973716 
C     4.6088561   -0.7187940   -0.5169193 
C     6.0286250   -0.3645886   -0.0363434 
C     6.7085704    0.5794564   -1.0589233 
C     6.8476578   -1.6765018    0.0860922 
C     6.0109625    0.3324317    1.3409021 
C     4.4180889   -1.2948998   -1.7954168 
C     3.1596885   -1.6900830   -2.2750739 
C     2.0448938   -1.4984858   -1.4287592 
C     2.9605537   -2.3447273   -3.6554755 
C     2.0591148   -1.4299898   -4.5211308 
C     4.2929926   -2.5606160   -4.4023113 
C     2.2840299   -3.7272676   -3.4635702 
C     0.7228686    0.6230657    1.8825931 
C     0.3990914    0.6965141    3.2545645 
C     0.2569914    1.9445519    3.8660801 
C     0.3884850    3.1247472    3.1256598 
C     0.8129129    1.8009889    1.1020313 
C     0.6440879    3.0576892    1.7447417 
C     1.1100903    1.8162068   -0.3620545 
C     2.3464103    2.3830091   -0.7677531 
O     3.1756644    2.7680903    0.2453084 
C     4.2258899    3.7126581   -0.0356279 
C     3.6909057    5.1293736   -0.2994585 
C     3.5058782    6.0013545    0.9560075 
C     2.4930663    5.5191520    2.0107246 
C     1.0377553    5.4283925    1.5223792 
O     0.7304401    4.1507613    0.9339614 
C     2.6727980    2.4873096   -2.1312572 
C     1.7684075    2.0305320   -3.0947220 
C     0.5448908    1.4663408   -2.7193051 
C     0.2106851    1.3544235   -1.3552969 
C    -2.2151568    1.8240257    0.1555048 
C    -2.8404691    1.4727215    1.3623983 
C    -3.5479711    2.4330085    2.1166661 
C    -4.2192894    2.0461387    3.4532540 
C    -5.0909154    0.7796709    3.2742092 
C    -5.1236057    3.1730499    3.9970648 
C    -3.1150316    1.7533615    4.4988406 
C    -3.5908611    3.7449303    1.6135216 
C    -2.9371816    4.1402639    0.4254916 
C    -2.2350956    3.1608168   -0.2924506 
C    -3.0492692    5.5981572   -0.0620839 
C    -2.6705924    6.5754959    1.0785016 
C    -2.1212955    5.8705212   -1.2651389 
C    -4.5177511    5.8614802   -0.4876003 
C    -2.2857972    0.3876994   -2.4544939 
C    -1.9853523   -0.7390538   -3.2468505 
C    -2.5523356   -0.8910774   -4.5241361 
C    -2.2588275   -2.1042128   -5.4295046 
C    -1.4046974   -1.6248938   -6.6320690 
C    -1.4899418   -3.2116632   -4.6793204 
C    -3.5853741   -2.7115123   -5.9534981 
C    -3.4155322    0.1264215   -4.9771191 
C    -3.7684145    1.2412513   -4.1948169 
C    -3.1945620    1.3527463   -2.9137500 
C    -4.7028819    2.3252998   -4.7670057 
C    -3.9116970    3.1204085   -5.8391423 
C    -5.1794716    3.3040364   -3.6726882 
C    -5.9503752    1.6836669   -5.4231779 
H     0.8216612   -6.0000856    0.6421103 
H     2.1491945   -5.3848500   -0.3912533 
H     2.0592376   -7.1174629    0.0133813 
H     1.3545750   -6.8921061    3.0175788 
H     3.0382910   -6.9063348    3.6107556 
H     2.5598753   -7.9827834    2.2740855 
H     4.4431491   -7.0221560    0.8025468 
H     4.5386064   -5.2549471    0.5195153 
H     4.9318529   -5.9276243    2.1263776 
H     1.2565114   -3.7252844    0.7282447 
H     3.8454262   -4.8933759    3.9739376 
H     4.0653607   -0.9809471    6.8665548 
H     2.4476096   -1.0496968    6.1156788 
H     3.8311191   -0.3498647    5.2189021 
H     2.4186532   -3.5771256    6.6575181 
H     4.0395399   -3.3818382    7.3917745 
H     3.7710185   -4.6236294    6.1429725 
H     5.7024992   -3.6133034    4.7290554 
H     5.6815052   -1.8768652    4.3143026 
H     5.9704912   -2.3922188    6.0046310 
H     2.2857635   -0.8814253    3.7978271 
H     3.5803355   -0.1315540    1.3018591 
H     7.7262837    0.8425226   -0.7199433 
H     6.1301311    1.5126018   -1.1732060 
H     6.7979494    0.1123044   -2.0545036 
H     7.8711389   -1.4589813    0.4408677 
H     6.3696092   -2.3669841    0.8035312 
H     6.9284417   -2.1958892   -0.8846990 
H     5.6116642   -0.3320346    2.1276293 
H     5.3970189    1.2494565    1.3214732 
H     7.0386326    0.6113151    1.6310491 
H     5.2955290   -1.4502034   -2.4276447 
H     1.0410969   -1.8000597   -1.7500228 
H     1.8572039   -1.9030745   -5.4986354 
H     2.5509435   -0.4586028   -4.6994966 
H     1.0923528   -1.2252593   -4.0312461 
H     4.8117501   -1.6057155   -4.5980615 
H     4.9759911   -3.2188428   -3.8370366 
H     4.0977394   -3.0389812   -5.3776742 
H     2.1094098   -4.2096226   -4.4418463 
H     2.9250213   -4.3928454   -2.8589815 
H     1.3096226   -3.6424852   -2.9526768 
H     0.2617798   -0.2166734    3.8381971 
H     0.0364532    2.0022374    4.9365299 
H     0.2757417    4.0896843    3.6248131 
H     4.8390274    3.3500616   -0.8803137 
H     4.8643529    3.6836568    0.8626032 
H     4.4038714    5.6441703   -0.9695721 
H     2.7448140    5.0452438   -0.8665994 
H     4.4896753    6.1163638    1.4504421 
H     3.2136975    7.0180497    0.6295249 
H     2.7858850    4.5338895    2.4194515 
H     2.5250302    6.2249680    2.8611350 
H     0.3253850    5.6456616    2.3387343 
H     0.8375300    6.1523750    0.7157475 
H     3.6252207    2.9198643   -2.4451849 
H     2.0215624    2.1192740   -4.1561507 
H    -0.1516738    1.1225771   -3.4873423 
H    -2.7531434    0.4381495    1.7139051 
H    -5.5861478    0.5213251    4.2262784 
H    -5.8733589    0.9371606    2.5119843 
H    -4.4862373   -0.0946021    2.9763591 
H    -5.6064140    2.8410532    4.9322605 
H    -5.9212046    3.4365993    3.2802389 
H    -4.5488099    4.0862511    4.2301129 
H    -3.5661207    1.4422600    5.4584970 
H    -2.5000421    2.6514806    4.6762859 
H    -2.4406297    0.9519005    4.1542902 
H    -4.1464009    4.5030479    2.1699274 
H    -1.6870674    3.4216526   -1.2006394 
H    -1.6386142    6.3976420    1.4223809 
H    -2.7415847    7.6184799    0.7227553 
H    -3.3420330    6.4759488    1.9482551 
H    -1.0683821    5.6471278   -1.0187092 
H    -2.1900162    6.9325201   -1.5572712 
H    -2.4032567    5.2675615   -2.1463815 
H    -4.6321281    6.8986740   -0.8505832 
H    -5.2123369    5.7185931    0.3585381 
H    -4.8224016    5.1755343   -1.2962571 
H    -1.3070378   -1.4984490   -2.8446605 
H    -0.4550680   -1.1820969   -6.2862648 
H    -1.9404806   -0.8622242   -7.2235552 
H    -1.1699590   -2.4722732   -7.3010829 
H    -2.0501592   -3.5682449   -3.7957824 
H    -1.3323062   -4.0757398   -5.3472016 
H    -0.4974148   -2.8703557   -4.3449712 
H    -4.2234812   -3.0534818   -5.1200673 
H    -3.3725923   -3.5813932   -6.5993870 
H    -4.1657003   -1.9889264   -6.5515560 
H    -3.8456053    0.0360946   -5.9792318 
H    -3.4500471    2.1943325   -2.2685468 
H    -4.5448463    3.9135750   -6.2760759 
H    -3.0184303    3.5941755   -5.3948674 
H    -3.5751529    2.4606330   -6.6579981 
H    -4.3388108    3.8752516   -3.2425436 
H    -5.6934587    2.7742289   -2.8512519 
H    -5.8850844    4.0340160   -4.1050001 
H    -5.6839749    1.0223933   -6.2652209 
H    -6.5199299    1.0902906   -4.6888284 
H    -6.6138313    2.4715517   -5.8208932 
