200
Energy =
C     0.8386057   -2.8542981    2.2379810 
C     0.6000488   -1.8819509    3.2655786 
C    -0.6918471   -1.3334120    3.4315046 
H     1.4460921   -1.4331510    3.8003449 
Pd    0.1050490   -0.9834606    1.3234289 
P    -0.4461410    1.2481881    0.9749954 
P     0.2549170   -1.4803865   -0.9462988 
H     0.0228869   -3.5505540    2.0006489 
H    -1.5266649   -1.9085579    2.9992565 
C     4.7267272   -4.1417132    0.8989564 
C     4.6069725   -2.9802506    1.6805042 
C     3.3520217   -2.5568554    2.1280149 
C     2.1831208   -3.2938355    1.8181730 
C     2.3200467   -4.4655629    1.0388392 
C     3.5769975   -4.8798784    0.5822210 
H     5.7094773   -4.4684185    0.5438362 
H     5.4983129   -2.3981791    1.9371536 
H     3.2795664   -1.6340635    2.7128653 
H     1.4284761   -5.0479695    0.7822937 
H     3.6581664   -5.7882149   -0.0229669 
C    -2.0430822    1.7849795    6.0548443 
C    -2.9309947    1.1466294    5.1760283 
C    -2.4682709    0.1290771    4.3373530 
C    -1.1105288   -0.2696367    4.3523460 
C    -0.2278367    0.3876536    5.2397429 
C    -0.6916743    1.4036831    6.0803161 
H    -2.4034328    2.5751728    6.7211767 
H    -3.9856759    1.4394755    5.1461860 
H    -3.1634654   -0.3664010    3.6523329 
H     0.8265036    0.1009288    5.2785296 
H     0.0055668    1.9046661    6.7589352 
C    -0.1960634    6.6203403    3.7987612 
C    -0.8088420    5.3634139    4.4717750 
C    -2.3162610    5.3006351    4.1369548 
C    -0.6564786    5.4825664    6.0079027 
C    -0.0554444    4.1294565    3.9372660 
C    -0.5994224    3.3204562    2.9218365 
C     1.2355317    3.8178820    4.4045818 
C     1.9818383    2.7193020    3.9311589 
C     3.3830205    2.4265793    4.5037765 
C     3.8765216    1.0138475    4.1245896 
C     4.3713268    3.4724152    3.9249496 
C     3.3669712    2.5247342    6.0495356 
C     1.4122618    1.9400977    2.9103967 
C     0.1400090    2.2545297    2.3903681 
C    -2.2098591    1.6140061    0.6946751 
C    -3.1352653    0.5723032    0.8680836 
C    -4.5073790    0.7931068    0.6657752 
C    -5.5529242   -0.3209387    0.8651813 
C    -6.3607298   -0.0120915    2.1522453 
C    -4.8883846   -1.7077236    1.0090427 
C    -6.5130568   -0.3739562   -0.3495736 
C    -4.9062464    2.0912745    0.2906609 
C    -3.9975898    3.1481556    0.0751303 
C    -2.6322332    2.8885538    0.2781670 
C    -4.5128291    4.5285683   -0.3738086 
C    -3.3535991    5.5019870   -0.6752862 
C    -5.3574781    4.3652401   -1.6629281 
C    -5.3906605    5.1293513    0.7537644 
C     0.4276709    1.9795362   -0.4788176 
C     1.5006455    2.8757642   -0.3029907 
C     2.1771233    3.3960002   -1.4135921 
C     1.7892514    3.0398871   -2.7095497 
C     0.0246982    1.6039426   -1.7846345 
C     0.7062688    2.1658994   -2.8903337 
C    -1.1394160    0.7114859   -2.0780658 
C    -2.2546957    1.3073303   -2.7164151 
O    -2.1747528    2.6599311   -2.9351891 
C    -2.5376491    3.1687019   -4.2334182 
C    -1.6345074    2.6369983   -5.3500869 
C    -0.1340131    2.7876227   -5.0826271 
O     0.2982770    1.7792747   -4.1407300 
C    -3.3852727    0.5516735   -3.0615940 
C    -3.3935126   -0.8238506   -2.8068781 
C    -2.2922811   -1.4427459   -2.2024661 
C    -1.1648852   -0.6843667   -1.8286246 
C     1.7395980   -0.9525757   -1.8605310 
C     1.7449887   -0.9833609   -3.2673202 
C     2.8860456   -0.5784133   -3.9766559 
C     2.9483867   -0.5895521   -5.5155168 
C     3.2797737    0.8389751   -6.0180363 
C     1.6057259   -1.0236345   -6.1400744 
C     4.0540868   -1.5751660   -5.9717397 
C     3.9957197   -0.1316968   -3.2298491 
C     4.0069263   -0.0621169   -1.8235743 
C     2.8557710   -0.4967827   -1.1418386 
C     5.2568430    0.4473285   -1.0805744 
C     5.7906987    1.7405551   -1.7444994 
C     6.3432097   -0.6576369   -1.1435399 
C     4.9445016    0.7632665    0.3978019 
C     0.0608631   -3.2815319   -1.2307831 
C    -0.9398629   -3.9512438   -0.4976509 
C    -1.1068717   -5.3403332   -0.6101886 
C    -2.1567061   -6.1143761    0.2098350 
C    -3.0908894   -6.8954586   -0.7487162 
C    -3.0233184   -5.1752264    1.0754992 
C    -1.4198316   -7.1056259    1.1479160 
C    -0.2410953   -6.0321365   -1.4850112 
C     0.7739469   -5.3952165   -2.2232007 
C     0.9184870   -4.0013968   -2.0759430 
C     1.6642676   -6.2066714   -3.1853026 
C     2.8571664   -5.3741940   -3.7041504 
C     2.2214181   -7.4653916   -2.4748331 
C     0.7948118   -6.6426941   -4.3940333 
H    -0.7051287    7.5347975    4.1530073 
H    -0.3018100    6.5668817    2.7006900 
H     0.8790525    6.7118555    4.0333564 
H    -2.8341555    6.1636919    4.5893499 
H    -2.5006367    5.3419317    3.0491425 
H    -2.7774795    4.3771521    4.5288616 
H    -1.2301752    6.3507137    6.3764652 
H     0.3933369    5.6322524    6.3122713 
H    -1.0342506    4.5786487    6.5149242 
H    -1.5996659    3.5208378    2.5348626 
H     1.6757555    4.4506661    5.1803052 
H     4.8647041    0.8278059    4.5787584 
H     3.1859924    0.2349796    4.4957631 
H     3.9866094    0.8907360    3.0351721 
H     4.4126833    3.4012790    2.8234873 
H     4.0634932    4.4989520    4.1895591 
H     5.3890143    3.3054360    4.3215856 
H     3.1027964    3.5359306    6.4014751 
H     2.6433082    1.8115866    6.4828137 
H     4.3663655    2.2861518    6.4535043 
H     1.9516170    1.0809422    2.4967625 
H    -2.7566092   -0.4170930    1.1379628 
H    -6.8747586    0.9619112    2.0766180 
H    -5.6960124    0.0235067    3.0337996 
H    -7.1251210   -0.7905492    2.3265407 
H    -4.2603589   -1.9428660    0.1317574 
H    -4.2570299   -1.7757017    1.9130637 
H    -5.6639637   -2.4879501    1.0954574 
H    -7.0803248    0.5645080   -0.4695610 
H    -7.2463215   -1.1893270   -0.2190256 
H    -5.9514072   -0.5557684   -1.2818507 
H    -5.9734661    2.2852725    0.1414508 
H    -1.8830455    3.6604822    0.0893784 
H    -2.7451472    5.7059702    0.2239457 
H    -3.7591624    6.4669076   -1.0253143 
H    -2.6890911    5.1014907   -1.4607098 
H    -6.2439357    3.7294335   -1.4971921 
H    -5.7130876    5.3498950   -2.0147707 
H    -4.7516004    3.9058302   -2.4619784 
H    -6.2554027    4.4823407    0.9823870 
H    -5.7778195    6.1194246    0.4532588 
H    -4.8047970    5.2537877    1.6815666 
H     1.8020396    3.1778088    0.7033151 
H     3.0135064    4.0866172   -1.2646528 
H     2.3199996    3.4283997   -3.5838237 
H    -3.6003883    2.9568873   -4.4588587 
H    -2.4313579    4.2605163   -4.1250555 
H    -1.8443491    1.5677422   -5.5344784 
H    -1.8913131    3.1796759   -6.2793887 
H     0.1117157    3.7947933   -4.6975427 
H     0.4355657    2.6212007   -6.0131548 
H    -4.2487276    1.0373218   -3.5245082 
H    -4.2649786   -1.4240234   -3.0880949 
H    -2.3057209   -2.5229833   -2.0374528 
H     0.8429767   -1.3011844   -3.7950776 
H     3.2963208    0.8630278   -7.1222997 
H     2.5179361    1.5516206   -5.6600103 
H     4.2656961    1.1825872   -5.6606945 
H     0.7872413   -0.3490931   -5.8341553 
H     1.6814661   -0.9973616   -7.2409749 
H     1.3352671   -2.0550361   -5.8510169 
H     3.8341466   -2.5993358   -5.6222729 
H     4.1212753   -1.5926354   -7.0743111 
H     5.0439516   -1.2871002   -5.5770630 
H     4.8897141    0.1901229   -3.7732059 
H     2.8017586   -0.4741140   -0.0498437 
H     6.1198445    1.5704311   -2.7835922 
H     5.0133438    2.5239250   -1.7551877 
H     6.6614951    2.1214865   -1.1823101 
H     7.2565366   -0.3336412   -0.6121534 
H     6.6169649   -0.8844417   -2.1888374 
H     5.9778108   -1.5891740   -0.6775480 
H     4.6444989   -0.1415961    0.9512910 
H     4.1341371    1.5090424    0.4848837 
H     5.8418674    1.1728827    0.8932533 
H    -1.5769130   -3.3708077    0.1767860 
H    -3.6208447   -6.2052878   -1.4286269 
H    -3.8447064   -7.4593792   -0.1712573 
H    -2.5316027   -7.6190175   -1.3660701 
H    -3.7621830   -5.7680301    1.6412782 
H    -2.4164874   -4.6166432    1.8113798 
H    -3.5789522   -4.4465796    0.4599860 
H    -0.8144137   -7.8314644    0.5783047 
H    -2.1474595   -7.6738562    1.7543751 
H    -0.7442942   -6.5655665    1.8354609 
H    -0.3598602   -7.1157159   -1.5854444 
H     1.7087412   -3.4707695   -2.6089134 
H     3.4849254   -5.0029243   -2.8745941 
H     3.4900494   -5.9999889   -4.3564509 
H     2.5256578   -4.5060578   -4.3006091 
H     2.8658413   -8.0353443   -3.1668082 
H     1.4184986   -8.1429433   -2.1381262 
H     2.8251093   -7.1883003   -1.5934811 
H     0.3896404   -5.7619474   -4.9226948 
H    -0.0563416   -7.2671881   -4.0707096 
H     1.3981050   -7.2298653   -5.1094429 
