197
Energy =
C    -1.2801079   -3.2835269    1.7080644 
C    -2.0958467   -3.3191027    0.5545878 
C    -1.5409656   -3.5080782   -0.7507291 
H    -3.1535291   -3.0389544    0.6459463 
Pd   -0.6717334   -1.6901922    0.1793999 
P     0.0513639   -0.4679280   -1.6535019 
P    -0.3440191    0.1591258    1.5803047 
H    -0.2955090   -3.7732230    1.6421940 
H    -0.6536503   -4.1517620   -0.8411169 
C    -2.5632018   -2.5191664    5.7403230 
C    -1.3608103   -3.1945952    5.4863491 
C    -0.9573649   -3.4364545    4.1685811 
C    -1.7457474   -3.0095575    3.0773266 
C    -2.9491039   -2.3216071    3.3508283 
C    -3.3536803   -2.0799407    4.6655545 
H    -2.8827193   -2.3303004    6.7701738 
H    -0.7305814   -3.5286675    6.3164859 
H    -0.0185430   -3.9648926    3.9752246 
H    -3.5680022   -1.9570405    2.5299499 
H    -4.2874802   -1.5398674    4.8538100 
C    -3.8047102   -2.9571218   -4.3758869 
C    -4.1628706   -2.2558484   -3.2120621 
C    -3.4374520   -2.4378290   -2.0307202 
C    -2.3434219   -3.3339009   -1.9787445 
C    -2.0034407   -4.0360627   -3.1544307 
C    -2.7205631   -3.8457764   -4.3417467 
H    -4.3686643   -2.8096305   -5.3024169 
H    -5.0053254   -1.5557067   -3.2277886 
H    -3.7049737   -1.8542079   -1.1432664 
H    -1.1619410   -4.7345413   -3.1340624 
H    -2.4266504   -4.3914711   -5.2440810 
C    -6.8900038    1.4607721    1.5733103 
C    -5.6785480    0.6826455    1.0151157 
C    -5.7200757    0.7459869   -0.5319369 
C    -5.8137084   -0.7931099    1.4611110 
C    -4.3365443    1.2750961    1.4996871 
C    -3.1304796    0.5611352    1.3290825 
C    -4.2559091    2.5500676    2.0861334 
C    -3.0380927    3.1387435    2.4937728 
C    -3.0298776    4.5622941    3.0809969 
C    -3.6514953    5.5365109    2.0465775 
C    -1.5975840    5.0430910    3.3964280 
C    -3.8625318    4.5787440    4.3881266 
C    -1.8650483    2.3902709    2.3317704 
C    -1.9107165    1.1008718    1.7638592 
C     0.2355202   -0.3013623    3.2573048 
C    -0.2884367    0.2851871    4.4176221 
C     0.2667074   -0.0067194    5.6779202 
C    -0.2387013    0.6873822    6.9578441 
C     0.7643627    1.8171600    7.3118548 
C    -1.6401688    1.3061471    6.7547240 
C    -0.3169669   -0.3147640    8.1354067 
C     1.3471608   -0.9071819    5.7253488 
C     1.8620760   -1.5551631    4.5834128 
C     1.2865574   -1.2364932    3.3416687 
C     3.0227133   -2.5600833    4.7273857 
C     4.3056141   -1.7755224    5.1073477 
C     3.2816469   -3.3363579    3.4185915 
C     2.7025447   -3.5907114    5.8398353 
C     0.8481542    1.4851804    1.0710892 
C     2.0117242    1.6923298    1.8350209 
C     2.9276620    2.6937903    1.4898636 
C     2.6814735    3.5138082    0.3873640 
C     0.5868226    2.3063226   -0.0623997 
C     1.5116889    3.3305799   -0.3649479 
C    -0.6446712    2.1916335   -0.9001853 
C    -1.5206311    3.3039747   -0.9537024 
O    -1.1900520    4.4622484   -0.2767853 
C    -0.6821050    5.5259356   -1.1107379 
C     0.8437236    5.4775585   -1.1413148 
O     1.2818516    4.1412633   -1.4604220 
C    -2.7358273    3.2501450   -1.6507046 
C    -3.0946515    2.0836519   -2.3331477 
C    -2.2359833    0.9798781   -2.3273990 
C    -1.0009604    1.0357924   -1.6480843 
C     1.7975606    0.0959197   -1.6822302 
C     2.1660184    1.0478233   -2.6526855 
C     3.5077258    1.4090916   -2.8158507 
C     3.9527555    2.4711448   -3.8390685 
C     4.9810263    1.8459807   -4.8152383 
C     4.5993892    3.6574781   -3.0783193 
C     2.7623752    3.0148887   -4.6576779 
C     4.4672215    0.7613307   -2.0014534 
C     4.1289292   -0.2008331   -1.0364362 
C     2.7612427   -0.5159795   -0.8763080 
C     5.1797718   -0.9053765   -0.1561986 
C     6.6229981   -0.5913138   -0.6022479 
C     4.9724599   -2.4400654   -0.2338172 
C     5.0017538   -0.4263115    1.3063733 
C     0.0119644   -1.2322576   -3.3240009 
C     0.7152520   -2.4519988   -3.4064141 
C     0.9631623   -3.0558587   -4.6446304 
C     1.7873030   -4.3506357   -4.7804367 
C     2.1991741   -4.9225178   -3.4070650 
C     3.0763786   -4.0300656   -5.5819181 
C     0.9634397   -5.4254003   -5.5341044 
C     0.4535759   -2.4187253   -5.7996965 
C    -0.2547606   -1.2080640   -5.7495198 
C    -0.4560282   -0.6108179   -4.4858405 
C    -0.7842182   -0.4912721   -7.0068300 
C    -0.0869757    0.8892927   -7.1279863 
C    -0.5094946   -1.2934139   -8.2954668 
C    -2.3153919   -0.2895759   -6.8722707 
H    -7.8250488    0.9750203    1.2453048 
H    -6.8856140    1.4797293    2.6773544 
H    -6.9165048    2.5018101    1.2077022 
H    -6.6544173    0.2946619   -0.9119040 
H    -5.6713339    1.7918269   -0.8788921 
H    -4.8663865    0.2062023   -0.9751787 
H    -6.7904882   -1.1975750    1.1440359 
H    -5.7431718   -0.8866303    2.5585522 
H    -5.0370440   -1.4325288    1.0063282 
H    -3.1248337   -0.4178335    0.8374684 
H    -5.1744477    3.1262207    2.2200569 
H    -3.6369573    6.5687760    2.4397601 
H    -3.0766152    5.5057033    1.1054554 
H    -4.7012455    5.2797416    1.8217549 
H    -1.6314450    6.0713910    3.7958471 
H    -0.9699234    5.0478289    2.4883043 
H    -1.1099052    4.4080276    4.1580194 
H    -4.9093269    4.2774984    4.2088905 
H    -3.8733957    5.5945857    4.8217575 
H    -3.4331436    3.8882416    5.1355331 
H    -0.8978321    2.8085809    2.6184168 
H    -1.1282062    0.9766103    4.3328989 
H     1.7758086    1.4098958    7.4862756 
H     0.4432140    2.3459880    8.2273261 
H     0.8300730    2.5529419    6.4907465 
H    -2.3701564    0.5469878    6.4228449 
H    -1.6293782    2.1215310    6.0104142 
H    -1.9982248    1.7361909    7.7058289 
H    -0.7110726    0.1912679    9.0338985 
H    -0.9849897   -1.1582629    7.8924585 
H     0.6721899   -0.7257359    8.3995921 
H     1.7990740   -1.1288845    6.6965127 
H     1.6436783   -1.7114778    2.4222949 
H     4.5551009   -1.0332277    4.3297414 
H     5.1617161   -2.4653278    5.2164944 
H     4.1767373   -1.2379864    6.0628149 
H     2.3832874   -3.8902281    3.0902421 
H     3.5974089   -2.6716024    2.5985313 
H     4.0895462   -4.0716554    3.5745198 
H     2.5587082   -3.1109775    6.8225346 
H     1.7878381   -4.1611821    5.6019147 
H     3.5356180   -4.3084344    5.9400282 
H     2.2024529    1.0733881    2.7146719 
H     3.8325147    2.8344540    2.0893645 
H     3.3832893    4.3005521    0.0958801 
H    -1.0972790    5.4251215   -2.1298431 
H    -1.0311287    6.4777862   -0.6743874 
H     1.2641198    5.7829796   -0.1658601 
H     1.2364395    6.1470834   -1.9256617 
H    -3.3894472    4.1273957   -1.6388485 
H    -4.0460210    2.0316090   -2.8708931 
H    -2.5258743    0.0654768   -2.8525031 
H     1.3885177    1.5051096   -3.2694305 
H     4.5378587    0.9895676   -5.3535355 
H     5.8832677    1.4884868   -4.2895148 
H     5.3022989    2.5950816   -5.5607064 
H     3.8585889    4.1249426   -2.4074901 
H     5.4635313    3.3332181   -2.4726168 
H     4.9543478    4.4215377   -3.7930192 
H     2.2669305    2.2158001   -5.2370560 
H     3.1224642    3.7729809   -5.3746921 
H     2.0131545    3.4938275   -4.0035614 
H     5.5190800    1.0253853   -2.1354136 
H     2.4397574   -1.2470139   -0.1254480 
H     7.3365122   -1.1402853    0.0362995 
H     6.8006263   -0.8973539   -1.6482173 
H     6.8565919    0.4837082   -0.5097125 
H     3.9739241   -2.7421942    0.1261805 
H     5.7216250   -2.9588244    0.3902655 
H     5.0802017   -2.7973924   -1.2731803 
H     5.7030250   -0.9565645    1.9752193 
H     5.1960364    0.6568068    1.3863567 
H     3.9756615   -0.6062679    1.6695741 
H     1.0870637   -2.9045038   -2.4820367 
H     2.8336251   -4.2163103   -2.8423412 
H     2.7784050   -5.8509611   -3.5493030 
H     1.3192990   -5.1718766   -2.7861410 
H     3.6753189   -3.2600485   -5.0645533 
H     3.6956207   -4.9383313   -5.6915237 
H     2.8415752   -3.6558758   -6.5932686 
H     0.0419564   -5.6800647   -4.9815643 
H     1.5575686   -6.3490145   -5.6504256 
H     0.6720677   -5.0861984   -6.5427379 
H     0.6333870   -2.8860119   -6.7708290 
H    -0.9582354    0.3577501   -4.4232760 
H    -0.4464003    1.4219585   -8.0264990 
H     1.0074138    0.7689729   -7.2116658 
H    -0.2927398    1.5294302   -6.2524159 
H    -0.9908001   -2.2870435   -8.2674428 
H    -0.9162060   -0.7491778   -9.1651325 
H     0.5720600   -1.4344381   -8.4676589 
H    -2.7112566    0.2337672   -7.7608151 
H    -2.5733871    0.3121437   -5.9833316 
H    -2.8298915   -1.2616473   -6.7827591 
