200
Energy =
C     3.4585286    0.4147064    1.3752177 
C     3.3203015    1.7391973    0.8424232 
C     2.3408004    2.6093437    1.3729048 
H     3.8468549    2.0164241   -0.0792578 
Pd    1.4139731    0.6811585    0.5859008 
P    -0.4360519    1.5020266   -0.5597914 
P     0.5225603   -1.4551253    0.8308682 
H     3.2662732    0.2819801    2.4477954 
H     1.9608243    2.3598120    2.3766881 
C     5.8230612   -2.7196961   -0.3964323 
C     5.4516895   -2.7765491    0.9548838 
C     4.6855189   -1.7518307    1.5226846 
C     4.2800817   -0.6392838    0.7509901 
C     4.6578019   -0.5965312   -0.6128914 
C     5.4219794   -1.6224101   -1.1772956 
H     6.4215127   -3.5221570   -0.8398350 
H     5.7640050   -3.6226438    1.5748988 
H     4.3895338   -1.8114793    2.5756074 
H     4.3376488    0.2401119   -1.2430452 
H     5.7057341   -1.5688811   -2.2337207 
C     1.1896101    6.5553453    0.1337482 
C     0.5644406    5.9302644    1.2230736 
C     0.9614924    4.6476273    1.6107633 
C     1.9855338    3.9589606    0.9180741 
C     2.6011279    4.6006844   -0.1809363 
C     2.2052871    5.8846493   -0.5669268 
H     0.8891241    7.5641007   -0.1666647 
H    -0.2308399    6.4437942    1.7733402 
H     0.4708016    4.1624093    2.4602257 
H     3.3979404    4.0971048   -0.7352187 
H     2.6897797    6.3660022   -1.4220002 
C     3.3965497   -3.7257385   -4.1019283 
C     2.1607356   -2.7887890   -4.0987398 
C     1.3246294   -3.0232445   -5.3810390 
C     2.6420725   -1.3221271   -4.1039716 
C     1.3204336   -3.1016029   -2.8459012 
C     1.3028323   -2.2507727   -1.7259141 
C     0.5574881   -4.2832984   -2.7782924 
C    -0.2415401   -4.6288980   -1.6686826 
C    -1.0654234   -5.9299002   -1.6857964 
C    -1.9528246   -6.0638237   -0.4302586 
C    -1.9855401   -5.9333141   -2.9331557 
C    -0.0952119   -7.1375628   -1.7428505 
C    -0.2554614   -3.7469769   -0.5775620 
C     0.5239130   -2.5758772   -0.6050782 
C     1.3263578   -2.3667037    2.2048609 
C     1.5818506   -1.6639005    3.3974407 
C     2.2198315   -2.2863670    4.4834562 
C     2.4559992   -1.4875670    5.7811148 
C     3.1826145   -0.1581079    5.4524464 
C     3.3115188   -2.2695215    6.7995348 
C     1.0785917   -1.1746826    6.4224880 
C     2.5971908   -3.6388357    4.3351773 
C     2.3533023   -4.3694679    3.1558231 
C     1.7212792   -3.7065380    2.0856227 
C     2.6948048   -5.8663298    3.0109417 
C     1.3611430   -6.6552801    2.9134467 
C     3.5213418   -6.1065141    1.7225507 
C     3.4990203   -6.4009288    4.2139775 
C    -1.2571931   -1.3099652    1.3232119 
C    -1.6455286   -1.4893788    2.6660174 
C    -2.9820149   -1.3157248    3.0462680 
C    -3.9527283   -0.9740494    2.0986459 
C    -2.2278309   -0.9636516    0.3487414 
C    -3.5769764   -0.8195137    0.7558012 
C    -1.9458660   -0.8179666   -1.1132828 
C    -2.5204512   -1.7757869   -1.9828072 
O    -3.2224793   -2.8031888   -1.4077314 
C    -4.6037866   -3.0080814   -1.7819435 
C    -5.5128422   -2.7022333   -0.5877932 
C    -5.7149538   -1.2105231   -0.3052281 
O    -4.4725218   -0.4849686   -0.2289197 
C    -2.3281574   -1.7063370   -3.3710692 
C    -1.5896915   -0.6482266   -3.9115280 
C    -1.0364851    0.3294929   -3.0751470 
C    -1.2072444    0.2514366   -1.6783816 
C    -1.7967933    2.1098441    0.4901841 
C    -3.0496228    2.4501271   -0.0487900 
C    -4.0762771    2.9132585    0.7910899 
C    -5.4650109    3.3034464    0.2508641 
C    -5.6874414    4.8198113    0.4834022 
C    -6.5522766    2.4936027    1.0019917 
C    -5.5970843    3.0061963   -1.2578558 
C    -3.8043934    3.0088251    2.1719393 
C    -2.5725870    2.6347817    2.7445184 
C    -1.5680472    2.1835044    1.8737947 
C    -2.3461524    2.7431322    4.2648695 
C    -3.5183097    2.0752085    5.0262793 
C    -2.2689973    4.2442948    4.6457360 
C    -1.0365242    2.0468622    4.6975226 
C     0.0818365    2.8427701   -1.6962815 
C     1.2865490    2.6447972   -2.4015068 
C     1.7126223    3.5717370   -3.3672575 
C     3.0086101    3.3756004   -4.1791072 
C     3.8115099    4.6988022   -4.2425497 
C     2.6199689    2.9324258   -5.6136887 
C     3.9212663    2.2973912   -3.5561510 
C     0.8904827    4.6936184   -3.5991877 
C    -0.2943851    4.9413873   -2.8797987 
C    -0.6847879    3.9965148   -1.9118660 
C    -1.1678475    6.1699529   -3.2021223 
C    -2.1764845    6.4660167   -2.0692602 
C    -0.2937984    7.4298914   -3.4163428 
C    -1.9513315    5.8645719   -4.5064304 
H     4.0305172   -3.5275948   -4.9852713 
H     3.0903368   -4.7861243   -4.1309042 
H     4.0039466   -3.5716276   -3.1928802 
H     1.9200813   -2.7607909   -6.2732357 
H     1.0163397   -4.0767589   -5.4902728 
H     0.4143972   -2.3988197   -5.3737136 
H     3.1960974   -1.1109639   -5.0350451 
H     3.3213774   -1.1146013   -3.2606951 
H     1.7904052   -0.6210787   -4.0453800 
H     1.8791431   -1.3218671   -1.7109082 
H     0.5755430   -4.9632768   -3.6358966 
H    -2.5483750   -6.9910297   -0.4928975 
H    -1.3493903   -6.1206415    0.4931521 
H    -2.6474457   -5.2108635   -0.3411092 
H    -2.6509555   -5.0535243   -2.9148550 
H    -1.4075576   -5.9067672   -3.8728668 
H    -2.6075528   -6.8459236   -2.9482572 
H    -0.6620280   -8.0856480   -1.7608507 
H     0.5411546   -7.1056409   -2.6443577 
H     0.5675439   -7.1476251   -0.8590929 
H    -0.8855679   -3.9449823    0.2924612 
H     1.2778243   -0.6126959    3.4698699 
H     2.5735457    0.4932360    4.8003986 
H     4.1465348   -0.3472760    4.9478145 
H     3.3850379    0.4053984    6.3801516 
H     2.8153984   -3.2011748    7.1227398 
H     4.3018692   -2.5279407    6.3850305 
H     3.4735002   -1.6522736    7.6998673 
H     0.4425698   -0.5827060    5.7411401 
H     1.2098283   -0.5946534    7.3536191 
H     0.5406751   -2.1068821    6.6684820 
H     3.0931934   -4.1376053    5.1683231 
H     1.5351717   -4.2389560    1.1496648 
H     0.7440756   -6.4981717    3.8154080 
H     1.5626227   -7.7370708    2.8151513 
H     0.7700626   -6.3379197    2.0362299 
H     4.4806407   -5.5638570    1.7619957 
H     3.7391971   -7.1833421    1.6109831 
H     2.9836813   -5.7780033    0.8164508 
H     4.4530813   -5.8584916    4.3382565 
H     3.7364853   -7.4671978    4.0573905 
H     2.9295933   -6.3248164    5.1569382 
H    -0.9074604   -1.7838103    3.4163670 
H    -3.2691434   -1.4560155    4.0934280 
H    -4.9947090   -0.8285617    2.3967444 
H    -4.8555418   -2.3799407   -2.6566203 
H    -4.7030620   -4.0681646   -2.0726075 
H    -6.5085120   -3.1495893   -0.7682714 
H    -5.0916392   -3.2056419    0.3013648 
H    -6.2526504   -0.7205578   -1.1333921 
H    -6.3146509   -1.0669779    0.6140523 
H    -2.7525923   -2.4837464   -4.0132713 
H    -1.4436871   -0.5817850   -4.9945573 
H    -0.4785952    1.1614671   -3.5125050 
H    -3.2202911    2.3211719   -1.1197834 
H    -6.6812285    5.1242806    0.1091613 
H    -5.6353641    5.0775028    1.5556132 
H    -4.9212609    5.4130928   -0.0464270 
H    -6.5557479    2.7118014    2.0836374 
H    -7.5540516    2.7406471    0.6079403 
H    -6.3819247    1.4116186    0.8716704 
H    -5.4241001    1.9368759   -1.4712918 
H    -6.6132127    3.2666535   -1.6009578 
H    -4.8838011    3.6004422   -1.8566888 
H    -4.5966790    3.3744179    2.8332470 
H    -0.5974761    1.8546664    2.2546845 
H    -4.4815822    2.5707313    4.8177434 
H    -3.6114386    1.0129839    4.7427339 
H    -3.3456376    2.1320966    6.1155339 
H    -2.1104963    4.3606530    5.7328951 
H    -3.2003029    4.7726084    4.3770425 
H    -1.4343162    4.7410842    4.1197062 
H    -0.1443364    2.5352465    4.2659426 
H    -1.0299199    0.9848504    4.3949877 
H    -0.9330334    2.0909677    5.7952163 
H     1.8803650    1.7499265   -2.1861331 
H     3.2524499    5.5029565   -4.7495059 
H     4.7494494    4.5447849   -4.8041705 
H     4.0735623    5.0505841   -3.2288593 
H     3.5231894    2.7926856   -6.2345076 
H     2.0649666    1.9778014   -5.5894287 
H     1.9800427    3.6870478   -6.1032786 
H     4.2034272    2.5592566   -2.5203115 
H     4.8511693    2.2095625   -4.1433691 
H     3.4436692    1.3044631   -3.5459087 
H     1.1944328    5.4119925   -4.3657160 
H    -1.5917686    4.1512015   -1.3252204 
H    -1.6641269    6.6092735   -1.1016857 
H    -2.7376715    7.3871150   -2.3022720 
H    -2.9157105    5.6543901   -1.9500455 
H    -0.9376465    8.3052388   -3.6109695 
H     0.3842250    7.3251155   -4.2803477 
H     0.3191183    7.6433056   -2.5244340 
H    -2.5947487    6.7202818   -4.7797732 
H    -2.5928259    4.9747312   -4.3782996 
H    -1.2620927    5.6696150   -5.3467627 
