197
Energy =
C    -0.5324990   -3.2110418    1.7495797 
C    -0.5434210   -3.7502308    0.4255148 
C     0.6053415   -3.6957996   -0.3952265 
H    -1.4987729   -4.0443725   -0.0277782 
Pd   -0.0062977   -1.6130115    0.2987132 
P     0.3781498   -0.3153580   -1.5948680 
P    -0.0363213    0.2491698    1.6965115 
H     0.4063637   -3.2768223    2.3155395 
H     1.5739875   -3.5261113    0.1029594 
C    -4.0505450   -2.7372564    4.1911342 
C    -4.1745013   -2.8054908    2.7927906 
C    -3.0396272   -2.9565483    1.9905412 
C    -1.7505251   -3.0496658    2.5675601 
C    -1.6409929   -2.9734458    3.9737328 
C    -2.7787597   -2.8236776    4.7755327 
H    -4.9404520   -2.6183700    4.8177262 
H    -5.1630330   -2.7394721    2.3262419 
H    -3.1542294   -2.9897569    0.9011015 
H    -0.6520899   -3.0303627    4.4391745 
H    -2.6679258   -2.7788795    5.8638403 
C     0.9427091   -5.0920001   -4.4462722 
C     1.9071576   -4.2293812   -3.9027133 
C     1.7890406   -3.7892416   -2.5819451 
C     0.6969694   -4.1898868   -1.7783051 
C    -0.2594106   -5.0693140   -2.3335065 
C    -0.1334760   -5.5178279   -3.6527563 
H     1.0354350   -5.4417053   -5.4796288 
H     2.7525222   -3.8945463   -4.5117190 
H     2.5379642   -3.1054765   -2.1708823 
H    -1.0894231   -5.4335249   -1.7200843 
H    -0.8720257   -6.2150490   -4.0610186 
C    -6.1727174    0.6123331    1.7252742 
C    -5.2252261    1.0119797    0.5642685 
C    -5.8923955    2.1159646   -0.2925741 
C    -4.9885596   -0.2176325   -0.3396991 
C    -3.9073295    1.5274252    1.1741522 
C    -2.7275891    0.7607911    1.1581898 
C    -3.8570916    2.7870881    1.8011147 
C    -2.6851416    3.3212822    2.3770881 
C    -2.7080101    4.7201527    3.0209097 
C    -3.1672968    5.7579796    1.9645327 
C    -1.3134222    5.1388638    3.5324405 
C    -3.6945805    4.7077160    4.2163001 
C    -1.5215572    2.5391315    2.3261858 
C    -1.5507545    1.2635085    1.7322092 
C     0.3229061   -0.2042154    3.4377438 
C     1.3616217   -1.1288838    3.6801316 
C     1.6619006   -1.5452674    4.9843368 
C     2.7725740   -2.5697223    5.2870194 
C     3.8098630   -1.9328663    6.2467588 
C     2.1393543   -3.8175609    5.9555905 
C     3.5074204   -3.0237815    4.0076610 
C     0.8873233   -1.0090791    6.0410358 
C    -0.1524998   -0.0880942    5.8318771 
C    -0.4288452    0.3012631    4.5039256 
C    -0.9474218    0.5535488    6.9863720 
C    -0.7551025   -0.2089152    8.3144481 
C    -2.4612207    0.5897369    6.6574238 
C    -0.4335580    2.0083161    7.1596583 
C     1.3072017    1.4372515    1.2281457 
C     2.4973557    1.4748164    1.9792890 
C     3.5363862    2.3469892    1.6325324 
C     3.3878594    3.2140919    0.5478321 
C     1.1461580    2.3022362    0.1100538 
C     2.1905641    3.2090789   -0.1824371 
C    -0.0905740    2.3593440   -0.7256337 
C    -0.8294838    3.5653938   -0.7410822 
O    -0.3816824    4.6428859    0.0001222 
C     0.2489560    5.6825763   -0.7773648 
C     1.7582219    5.4550221   -0.8295430 
O     2.0394789    4.0973175   -1.2309207 
C    -2.0251522    3.6858663   -1.4635863 
C    -2.4716515    2.6148820   -2.2417110 
C    -1.7290453    1.4297147   -2.2927872 
C    -0.5468597    1.2876153   -1.5396773 
C     2.1120686    0.1482776   -1.9207594 
C     2.4320171    1.1790752   -2.8272716 
C     3.7711160    1.5131913   -3.0723666 
C     4.1715502    2.6419058   -4.0410711 
C     4.9848295    3.7088247   -3.2632091 
C     2.9382854    3.3339087   -4.6593668 
C     5.0340488    2.0479647   -5.1837122 
C     4.7720208    0.7829833   -2.3884130 
C     4.4825818   -0.2374734   -1.4669059 
C     3.1244781   -0.5366054   -1.2367644 
C     5.5684056   -1.0230188   -0.7046872 
C     5.4155363   -0.7530643    0.8139925 
C     6.9924986   -0.6166758   -1.1359818 
C     5.3864994   -2.5388657   -0.9758703 
C    -0.2904092   -1.1174800   -3.0998719 
C    -1.5008146   -1.8249469   -2.9492188 
C    -2.1795117   -2.3300876   -4.0670145 
C    -3.5662152   -2.9917433   -3.9420853 
C    -3.8683194   -3.4255587   -2.4903271 
C    -3.6689586   -4.2402633   -4.8506781 
C    -4.6274477   -1.9468234   -4.3791488 
C    -1.5835999   -2.1407399   -5.3347505 
C    -0.3567931   -1.4771938   -5.5114048 
C     0.2834481   -0.9595790   -4.3663610 
C     0.2934974   -1.2688352   -6.8937302 
C    -0.5391490   -1.8942231   -8.0317289 
C     0.4284693    0.2533829   -7.1604822 
C     1.7006676   -1.9191121   -6.9022165 
H    -7.1282631    0.2235373    1.3290605 
H    -5.7101420   -0.1677041    2.3545789 
H    -6.3968098    1.4799384    2.3702173 
H    -6.8193650    1.7294870   -0.7515873 
H    -6.1666186    2.9997867    0.3078373 
H    -5.2166996    2.4473037   -1.0996198 
H    -5.9374965   -0.5271785   -0.8106383 
H    -4.6087722   -1.0792767    0.2344951 
H    -4.2658793    0.0089833   -1.1437441 
H    -2.7009796   -0.2263934    0.6890843 
H    -4.7706377    3.3892741    1.8330351 
H    -3.1877324    6.7696283    2.4077588 
H    -2.4685251    5.7607910    1.1106107 
H    -4.1804337    5.5380660    1.5854851 
H    -1.3674913    6.1504343    3.9706111 
H    -0.5772747    5.1594183    2.7102710 
H    -0.9441717    4.4565783    4.3191414 
H    -4.7199450    4.4523650    3.8969043 
H    -3.7279595    5.7021016    4.6962176 
H    -3.3804745    3.9683807    4.9748079 
H    -0.5778828    2.9185985    2.7245511 
H     1.9243956   -1.5247043    2.8292424 
H     4.2695069   -1.0391017    5.7892858 
H     4.6124118   -2.6561437    6.4761225 
H     3.3491488   -1.6278643    7.2018276 
H     1.4014860   -4.2918159    5.2839526 
H     1.6255350   -3.5594632    6.8973139 
H     2.9192940   -4.5636415    6.1899197 
H     4.2921686   -3.7539384    4.2696127 
H     2.8225691   -3.5181729    3.2944971 
H     3.9964094   -2.1786087    3.4916897 
H     1.1111431   -1.3309905    7.0611206 
H    -1.2424852    1.0012005    4.3022196 
H    -1.0616951   -1.2661208    8.2209040 
H    -1.3723237    0.2550318    9.1027352 
H     0.2927816   -0.1803133    8.6606115 
H    -2.6803795    1.2047789    5.7676827 
H    -2.8545943   -0.4237626    6.4721252 
H    -3.0164631    1.0281095    7.5050155 
H     0.6439598    2.0196668    7.3997518 
H    -0.5833326    2.5940335    6.2350730 
H    -0.9776355    2.5132954    7.9779811 
H     2.6114088    0.8302020    2.8540433 
H     4.4585879    2.3565573    2.2221025 
H     4.1815345    3.9099735    0.2605464 
H    -0.1800416    5.6931768   -1.7957372 
H     0.0215045    6.6429821   -0.2833165 
H     2.2172489    5.6508040    0.1565137 
H     2.2226907    6.1192099   -1.5786621 
H    -2.5839882    4.6246724   -1.4098841 
H    -3.3942633    2.7043007   -2.8238612 
H    -2.0691829    0.6116759   -2.9323553 
H     1.6226889    1.7330267   -3.3081835 
H     5.9027168    3.2840646   -2.8211474 
H     4.3700266    4.1334726   -2.4514460 
H     5.2864259    4.5265650   -3.9418968 
H     2.3316726    2.6307805   -5.2577763 
H     2.2967593    3.7771249   -3.8783870 
H     3.2676065    4.1431693   -5.3337930 
H     5.9552292    1.5766565   -4.7993351 
H     5.3319315    2.8429595   -5.8903826 
H     4.4676362    1.2825743   -5.7438386 
H     5.8169821    1.0388586   -2.5799891 
H     2.8399863   -1.2988095   -0.5025446 
H     6.1544525   -1.3433273    1.3850797 
H     5.5744025    0.3152391    1.0373238 
H     4.4081415   -1.0240895    1.1756084 
H     7.1612308   -0.8030149   -2.2112063 
H     7.7347309   -1.2079541   -0.5725944 
H     7.1925140    0.4498585   -0.9316122 
H     6.1788527   -3.1159186   -0.4671330 
H     4.4159831   -2.9080943   -0.6001423 
H     5.4398311   -2.7569129   -2.0568501 
H    -1.9130910   -1.9478332   -1.9419620 
H    -3.1015581   -4.1263580   -2.1165795 
H    -4.8453525   -3.9366374   -2.4490965 
H    -3.9200585   -2.5647896   -1.8021600 
H    -2.8931134   -4.9800382   -4.5910678 
H    -4.6575731   -4.7157762   -4.7272873 
H    -3.5577289   -3.9878541   -5.9186579 
H    -4.5854883   -1.0530677   -3.7311238 
H    -5.6436410   -2.3756064   -4.3116221 
H    -4.4589144   -1.6221295   -5.4206571 
H    -2.1040130   -2.5272219   -6.2133815 
H     1.2337092   -0.4273055   -4.4639210 
H    -0.0324484   -1.7263164   -8.9975627 
H    -1.5442583   -1.4421525   -8.1001179 
H    -0.6551129   -2.9846472   -7.9001669 
H     1.0648567    0.7447493   -6.4038067 
H     0.8860992    0.4285858   -8.1504560 
H    -0.5604713    0.7440249   -7.1444794 
H     2.1910132   -1.7520776   -7.8777024 
H     1.6280024   -3.0071085   -6.7339105 
H     2.3530066   -1.4947298   -6.1188776 
