206
Energy =
C    -0.8402273   -3.5955742    1.0600724 
C    -2.1605573   -3.1909113    0.7558313 
C    -2.5112492   -2.8372093   -0.5851700 
H    -2.8690304   -2.9962068    1.5707122 
Pd   -0.8827687   -1.5117684    0.1414090 
P    -0.7575808    0.0590376   -1.5644555 
P     0.7434454   -0.4694838    1.4548447 
H    -0.2299932   -3.9468117    0.2131252 
H    -1.9822139   -3.3619216   -1.3921765 
C     0.8452889   -4.6800804    4.8557153 
C     1.6170765   -4.7329320    3.6851353 
C     1.0512644   -4.3688117    2.4598009 
C    -0.2956227   -3.9428893    2.3782293 
C    -1.0528580   -3.8763465    3.5698122 
C    -0.4866318   -4.2404464    4.7944142 
H     1.2773467   -4.9854146    5.8138734 
H     2.6600149   -5.0636921    3.7264824 
H     1.6566394   -4.4090403    1.5481965 
H    -2.0950640   -3.5466292    3.5392145 
H    -1.0881315   -4.1845436    5.7070335 
C    -6.3421249   -1.2556237   -1.7590916 
C    -5.5484602   -1.9661433   -2.6711077 
C    -4.3012333   -2.4659713   -2.2796980 
C    -3.8197614   -2.2715852   -0.9663660 
C    -4.6236707   -1.5391827   -0.0613814 
C    -5.8717224   -1.0440219   -0.4520650 
H    -7.3190445   -0.8652443   -2.0625291 
H    -5.9000572   -2.1360143   -3.6942033 
H    -3.6868185   -3.0148347   -2.9991821 
H    -4.2616265   -1.3438904    0.9539838 
H    -6.4814448   -0.4844717    0.2645767 
C    -3.2584977    0.7584963    5.9547366 
C    -3.0158358   -0.5857444    5.2200222 
C    -3.4043688   -1.7626964    6.1503555 
C    -3.9272960   -0.6382859    3.9759025 
C    -1.5227174   -0.6785263    4.8484763 
C    -1.0727200   -0.6381968    3.5218117 
C    -0.5483352   -0.7819678    5.8668774 
C     0.8283675   -0.8690933    5.6011748 
C     1.8907675   -0.8950431    6.7184190 
C     1.2629097   -1.0557938    8.1186284 
C     2.8845496   -2.0608250    6.4952424 
C     2.6599788    0.4525568    6.6725966 
C     1.2421125   -0.8494985    4.2511402 
C     0.3056497   -0.7100003    3.2212695 
C     2.4353682   -1.0788948    1.1304312 
C     3.5697885   -0.5805802    1.7873706 
C     4.8389083   -1.1511805    1.5506963 
C     6.0569427   -0.6531530    2.3553659 
C     5.7564445   -0.8069848    3.8686210 
C     6.3141271    0.8384437    2.0281425 
C     7.3375912   -1.4512004    2.0336973 
C     4.9298801   -2.1752203    0.5908499 
C     3.8148989   -2.6490708   -0.1370452 
C     2.5651648   -2.0944644    0.1631869 
C     3.9863943   -3.7535456   -1.1973433 
C     2.6715499   -4.0206684   -1.9630378 
C     5.0653112   -3.3245873   -2.2237739 
C     4.4285237   -5.0620002   -0.4931932 
C     0.8209514    1.3664053    1.2947510 
C     0.3952686    2.1905482    2.3561396 
C     0.4142715    3.5809441    2.2076590 
C     0.8478378    4.1681047    1.0150748 
C     1.2652043    1.9383262    0.0791686 
C     1.2781215    3.3525304   -0.0467709 
C     1.8137766    1.1501774   -1.0665501 
C     3.2038680    1.2895824   -1.3265389 
O     3.8944340    2.0673793   -0.4445431 
C     5.1474903    2.6398121   -0.8665370 
C     4.9771832    3.7115247   -1.9570834 
C     4.7724796    5.1442530   -1.4324071 
C     3.5152713    5.4100218   -0.5848273 
C     2.1795312    5.1979808   -1.3157731 
O     1.7157616    3.8359929   -1.2458538 
C     3.7955362    0.6495687   -2.4298643 
C     3.0000110   -0.1051534   -3.2969190 
C     1.6275933   -0.2447072   -3.0695401 
C     1.0281855    0.3684134   -1.9498406 
C    -1.5203927    1.6935972   -1.2966759 
C    -2.3995561    1.8743887   -0.2215883 
C    -3.0708795    3.1028799   -0.0447452 
C    -4.0211324    3.2890154    1.1550999 
C    -4.7236446    4.6620593    1.1398695 
C    -3.2047681    3.1702630    2.4668354 
C    -5.1052929    2.1836249    1.1201867 
C    -2.8392692    4.1109976   -0.9953417 
C    -1.9570661    3.9556833   -2.0901046 
C    -1.2819098    2.7343059   -2.2175892 
C    -1.8073686    5.0890261   -3.1232027 
C    -1.4742879    6.4220888   -2.4085394 
C    -0.6916912    4.7877244   -4.1462376 
C    -3.1516502    5.2358671   -3.8841278 
C    -1.4808569   -0.5909877   -3.1209688 
C    -1.0942804   -1.8787034   -3.5385968 
C    -1.6100099   -2.4454482   -4.7161799 
C    -1.1064714   -3.8307710   -5.1701914 
C     0.3879926   -3.6997264   -5.5663649 
C    -1.2388789   -4.8496074   -4.0092923 
C    -1.8960924   -4.3687170   -6.3814620 
C    -2.5597001   -1.6961324   -5.4429161 
C    -2.9906858   -0.4186340   -5.0341171 
C    -2.4316004    0.1251829   -3.8616139 
C    -3.9905191    0.4219986   -5.8532321 
C    -3.1834654    1.5068670   -6.6156393 
C    -5.0147720    1.1160638   -4.9201112 
C    -4.7674445   -0.4369284   -6.8738147 
H    -2.6565168    0.8266634    6.8772348 
H    -2.9883951    1.6108454    5.3072860 
H    -4.3226785    0.8578637    6.2344106 
H    -2.8156897   -1.7642930    7.0832370 
H    -3.2480083   -2.7324979    5.6464827 
H    -4.4704930   -1.6904707    6.4286669 
H    -4.9856138   -0.5917040    4.2845425 
H    -3.7456839    0.2077621    3.2923056 
H    -3.7859600   -1.5778333    3.4119845 
H    -1.7824213   -0.5468702    2.6920466 
H    -0.8857741   -0.7934675    6.9059161 
H     2.0607579   -1.0977512    8.8798722 
H     0.6752370   -1.9879492    8.1945467 
H     0.6057769   -0.2069562    8.3768494 
H     2.3683819   -3.0320020    6.5633314 
H     3.6757129   -2.0337638    7.2651589 
H     3.3748348   -2.0070325    5.5091290 
H     3.1628459    0.5952711    5.7002026 
H     1.9720974    1.3022683    6.8269665 
H     3.4315141    0.4816301    7.4627810 
H     2.3045097   -0.9256231    4.0080355 
H     3.4651426    0.2582257    2.4827330 
H     6.6256398   -0.4808989    4.4668260 
H     5.5390859   -1.8596496    4.1205808 
H     4.8917011   -0.1957698    4.1788322 
H     7.1322953    1.2327710    2.6568544 
H     6.6074985    0.9525576    0.9713248 
H     5.4170936    1.4573616    2.2007300 
H     7.6245595   -1.3554532    0.9715729 
H     7.2204521   -2.5240128    2.2677587 
H     8.1756983   -1.0662566    2.6397571 
H     5.9063741   -2.6222872    0.3894023 
H     1.6629839   -2.4219208   -0.3612704 
H     2.8391896   -4.7850141   -2.7412039 
H     2.3023725   -3.1051090   -2.4578351 
H     1.8759795   -4.4003085   -1.2964372 
H     4.7761890   -2.3818650   -2.7186870 
H     6.0481252   -3.1730886   -1.7456665 
H     5.1869284   -4.1033970   -2.9974901 
H     4.5656531   -5.8707034   -1.2331530 
H     5.3830514   -4.9280973    0.0445858 
H     3.6693870   -5.3903248    0.2390261 
H     0.0611082    1.7494836    3.2979601 
H     0.0920363    4.2196292    3.0364070 
H     0.8563855    5.2561238    0.9200979 
H     5.8325849    1.8357741   -1.1929222 
H     5.5696865    3.0705157    0.0550527 
H     5.8850105    3.7054119   -2.5880159 
H     4.1434960    3.4118432   -2.6190699 
H     5.6588523    5.4286793   -0.8332427 
H     4.7629045    5.8321389   -2.2997956 
H     3.5163211    4.7878337    0.3298220 
H     3.5513978    6.4598410   -0.2399455 
H     1.3991237    5.8782465   -0.9295508 
H     2.2752090    5.3962377   -2.3958524 
H     4.8653836    0.7504554   -2.6251375 
H     3.4546833   -0.5824029   -4.1712594 
H     1.0227544   -0.8115636   -3.7798377 
H    -2.5531711    1.0447824    0.4778018 
H    -5.3936456    4.7447539    2.0130862 
H    -3.9994740    5.4938184    1.1968140 
H    -5.3384316    4.7959721    0.2324352 
H    -3.8747893    3.2397978    3.3425901 
H    -2.4570164    3.9780443    2.5341664 
H    -2.6610092    2.2117591    2.5249567 
H    -5.7979975    2.2990150    1.9730433 
H    -4.6594581    1.1778539    1.1808613 
H    -5.6901997    2.2340642    0.1855392 
H    -3.3663795    5.0622285   -0.8909435 
H    -0.5713952    2.5677894   -3.0304486 
H    -0.5338995    6.3362254   -1.8381566 
H    -1.3562770    7.2323171   -3.1496279 
H    -2.2703817    6.7259436   -1.7078075 
H     0.2772155    4.6153690   -3.6468808 
H    -0.5780861    5.6408266   -4.8371336 
H    -0.9262881    3.8976465   -4.7563116 
H    -3.0802130    6.0391338   -4.6391965 
H    -3.9788880    5.4859121   -3.1972973 
H    -3.4122829    4.2964319   -4.4026405 
H    -0.3765675   -2.4423188   -2.9315332 
H     1.0014386   -3.3592937   -4.7134282 
H     0.5126930   -2.9739157   -6.3888669 
H     0.7849277   -4.6748042   -5.9013651 
H    -2.2886326   -4.9433221   -3.6794763 
H    -0.8938586   -5.8460891   -4.3366404 
H    -0.6264800   -4.5619265   -3.1361473 
H    -2.9723500   -4.4666400   -6.1539069 
H    -1.5179146   -5.3678237   -6.6580797 
H    -1.7851699   -3.7167804   -7.2653265 
H    -2.9794324   -2.1242322   -6.3538415 
H    -2.7435372    1.1138888   -3.5186762 
H    -3.8611545    2.1443519   -7.2116600 
H    -2.6315839    2.1551691   -5.9119755 
H    -2.4501066    1.0448201   -7.2994187 
H    -4.5331793    1.8329710   -4.2331843 
H    -5.5610446    0.3785822   -4.3086526 
H    -5.7464569    1.6811575   -5.5237472 
H    -4.1030462   -0.8768482   -7.6377302 
H    -5.3145095   -1.2573299   -6.3757877 
H    -5.5044628    0.1903042   -7.4040843 
