200
Energy =
C     0.8257910   -2.9371269    2.1247921 
C     0.7115016   -2.0045896    3.2020633 
C    -0.5066711   -1.3539131    3.4950178 
H     1.6217640   -1.6410915    3.6961999 
Pd    0.1255795   -0.9831369    1.3309460 
P    -0.4586764    1.2462052    0.9817139 
P     0.2361571   -1.4440774   -0.9511391 
H    -0.0459029   -3.5646817    1.8966609 
H    -1.4332149   -1.7946712    3.0917046 
C     4.5788726   -4.4704317    0.6624730 
C     3.3764186   -5.1368036    0.3866677 
C     2.1615770   -4.6380306    0.8727700 
C     2.1221700   -3.4545132    1.6437089 
C     3.3435763   -2.7905978    1.9115622 
C     4.5557127   -3.2958106    1.4334194 
H     5.5283065   -4.8625429    0.2837419 
H     3.3820276   -6.0549530   -0.2088920 
H     1.2284200   -5.1662815    0.6500832 
H     3.3453499   -1.8608865    2.4911855 
H     5.4887432   -2.7693404    1.6597326 
C    -1.0982293    1.5541429    6.6047681 
C    -1.9925624    1.4704204    5.5262426 
C    -1.7997298    0.5141666    4.5253621 
C    -0.6952431   -0.3667183    4.5710429 
C     0.1893977   -0.2821580    5.6697184 
C    -0.0144617    0.6661227    6.6781256 
H    -1.2504123    2.3011634    7.3902920 
H    -2.8427948    2.1572305    5.4613313 
H    -2.4941589    0.4643458    3.6802896 
H     1.0213289   -0.9883876    5.7559964 
H     0.6686922    0.7037253    7.5328399 
C    -2.3426835    5.6554229    3.5749457 
C    -0.9882528    5.5034082    4.3002779 
C    -1.2598783    5.4025786    5.8228253 
C    -0.1303969    6.7620718    4.0091401 
C    -0.2170241    4.2552307    3.8271318 
C    -0.6995413    3.4227951    2.8028848 
C     1.0258533    3.9315569    4.4092404 
C     1.7853230    2.8077451    4.0282963 
C     3.1776109    2.5458303    4.6358186 
C     3.6181668    1.0766207    4.4448253 
C     4.1892141    3.4691787    3.9057221 
C     3.1933961    2.8617591    6.1503316 
C     1.2587624    1.9840564    3.0184003 
C     0.0403574    2.3022169    2.3928466 
C    -2.2293380    1.5524141    0.6657539 
C    -2.6797740    2.7891758    0.1629782 
C    -4.0507568    3.0195871   -0.0171743 
C    -4.5941216    4.3542537   -0.5611469 
C    -5.4165705    4.0788090   -1.8458828 
C    -3.4573692    5.3369005   -0.9133867 
C    -5.5007326    5.0083858    0.5126466 
C    -4.9485197    1.9774785    0.3144895 
C    -4.5259257    0.7251666    0.7911163 
C    -3.1404902    0.5288680    0.9561589 
C    -5.4949531   -0.4290139    1.1138908 
C    -5.2304045   -0.9390149    2.5540516 
C    -6.9721097    0.0036062    1.0136361 
C    -5.2444840   -1.5798586    0.1057544 
C     0.4373108    1.9984151   -0.4497250 
C     1.5075438    2.8874479   -0.2230640 
C     2.2199979    3.4286458   -1.2998777 
C     1.8777277    3.0946016   -2.6143804 
C     0.0742909    1.6517972   -1.7751029 
C     0.8005973    2.2263711   -2.8469838 
C    -1.0836246    0.7747569   -2.1284010 
C    -2.1566763    1.3810392   -2.8270404 
O    -2.0585982    2.7350638   -3.0311611 
C    -2.3656088    3.2604191   -4.3372882 
C    -1.4149091    2.7391367   -5.4184314 
C     0.0703466    2.8758645   -5.0718283 
O     0.4407681    1.8557990   -4.1165296 
C    -3.2701373    0.6355109   -3.2417126 
C    -3.3067813   -0.7390606   -2.9878382 
C    -2.2499658   -1.3671414   -2.3181551 
C    -1.1378633   -0.6202474   -1.8807138 
C     1.7614418   -0.9274514   -1.8054413 
C     1.8240207   -0.9397624   -3.2109583 
C     2.9974623   -0.5375006   -3.8678700 
C     3.1228354   -0.5328798   -5.4030082 
C     3.4898557    0.8969556   -5.8761725 
C     1.8024684   -0.9458391   -6.0867624 
C     4.2357532   -1.5260500   -5.8240211 
C     4.0793038   -0.1088633   -3.0714023 
C     4.0326370   -0.0537639   -1.6649791 
C     2.8513087   -0.4873335   -1.0374657 
C     5.2525356    0.4453653   -0.8666087 
C     4.8989114    0.6894934    0.6165665 
C     5.7727594    1.7779101   -1.4606510 
C     6.3662558   -0.6300592   -0.9528478 
C     0.0003182   -3.2326959   -1.2817755 
C    -1.0279810   -3.8912583   -0.5773892 
C    -1.2576389   -5.2644557   -0.7560674 
C    -2.3431683   -6.0295408    0.0250551 
C    -3.3459548   -6.6613211   -0.9736158 
C    -3.1249864   -5.1083411    0.9855241 
C    -1.6642621   -7.1441674    0.8628160 
C    -0.4288850   -5.9499496   -1.6710008 
C     0.6137025   -5.3247815   -2.3800028 
C     0.8240077   -3.9484751   -2.1624240 
C     1.4579352   -6.1216297   -3.3945421 
C     1.9155740   -7.4702708   -2.7859159 
C     0.5735552   -6.3959811   -4.6397313 
C     2.7137090   -5.3380652   -3.8365529 
H    -2.8685103    6.5491510    3.9525233 
H    -2.9983144    4.7827679    3.7453060 
H    -2.2128465    5.7815975    2.4855488 
H    -1.7884982    6.3058264    6.1758173 
H    -1.8873744    4.5243398    6.0504704 
H    -0.3249461    5.3115621    6.4019271 
H    -0.6641859    7.6727730    4.3346630 
H     0.0796024    6.8507438    2.9286810 
H     0.8353475    6.7282461    4.5424620 
H    -1.6559131    3.6353714    2.3228606 
H     1.4184309    4.5857024    5.1933362 
H     4.5900645    0.9111067    4.9404262 
H     2.8838777    0.3822240    4.8884756 
H     3.7467127    0.8165475    3.3801933 
H     4.2097081    3.2482309    2.8236155 
H     3.9173122    4.5316315    4.0326599 
H     5.2078893    3.3224593    4.3082628 
H     3.0019954    3.9287223    6.3546382 
H     2.4323472    2.2676903    6.6838361 
H     4.1838700    2.6213834    6.5744128 
H     1.7999228    1.0902997    2.6899078 
H    -1.9448726    3.5506369   -0.1067949 
H    -6.2821730    3.4236422   -1.6478964 
H    -4.7841239    3.5898141   -2.6061501 
H    -5.8005013    5.0254890   -2.2657639 
H    -2.8647370    5.6106658   -0.0224459 
H    -2.7748856    4.9062144   -1.6657850 
H    -3.8849253    6.2672470   -1.3253209 
H    -6.3560945    4.3615415    0.7740671 
H    -5.9036687    5.9673441    0.1407491 
H    -4.9295029    5.2083523    1.4364768 
H    -6.0183147    2.1558858    0.1794038 
H    -2.7525484   -0.4368771    1.2994442 
H    -4.2088967   -1.3431087    2.6667441 
H    -5.9360910   -1.7498313    2.8070547 
H    -5.3583188   -0.1269767    3.2910974 
H    -7.2351438    0.3279216   -0.0084571 
H    -7.6271973   -0.8467928    1.2699177 
H    -7.2024704    0.8281679    1.7110946 
H    -5.4589748   -1.2484385   -0.9243942 
H    -5.8925218   -2.4440244    0.3379747 
H    -4.1942685   -1.9185845    0.1334741 
H     1.7778787    3.1684889    0.7979662 
H     3.0498808    4.1168055   -1.1097120 
H     2.4406000    3.4953023   -3.4626520 
H    -3.4184604    3.0552276   -4.6098001 
H    -2.2613292    4.3505352   -4.2112454 
H    -1.6218837    1.6741509   -5.6287132 
H    -1.6219842    3.2975551   -6.3507171 
H     0.3021909    3.8775977   -4.6646577 
H     0.6878227    2.7132096   -5.9720043 
H    -4.0992162    1.1281196   -3.7570323 
H    -4.1666621   -1.3307645   -3.3179690 
H    -2.2869903   -2.4461645   -2.1515970 
H     0.9407819   -1.2388601   -3.7797545 
H     3.5504045    0.9326571   -6.9785469 
H     2.7226768    1.6145423   -5.5403886 
H     4.4646213    1.2252610   -5.4764086 
H     0.9789410   -0.2659247   -5.8073670 
H     1.9235988   -0.9090966   -7.1832667 
H     1.5096697   -1.9773537   -5.8203965 
H     3.9904965   -2.5513004   -5.4953115 
H     4.3485070   -1.5324354   -6.9230046 
H     5.2114132   -1.2533218   -5.3854818 
H     4.9975388    0.2118328   -3.5739111 
H     2.7504363   -0.4716782    0.0513460 
H     4.0712657    1.4141919    0.7169579 
H     4.6053365   -0.2441082    1.1246507 
H     5.7751725    1.0961468    1.1504760 
H     6.6300226    2.1461294   -0.8697737 
H     4.9822436    2.5472768   -1.4443606 
H     6.1158186    1.6621056   -2.5027630 
H     6.6789982   -0.7946583   -1.9987712 
H     6.0093642   -1.5934314   -0.5502256 
H     7.2544373   -0.3146385   -0.3758317 
H    -1.6411637   -3.3140310    0.1215660 
H    -3.8392078   -5.8808863   -1.5794874 
H    -4.1264230   -7.2216471   -0.4288420 
H    -2.8474259   -7.3636996   -1.6635319 
H    -3.8839293   -5.6970305    1.5285648 
H    -2.4630017   -4.6463379    1.7407669 
H    -3.6520027   -4.3027864    0.4453601 
H    -1.1247421   -7.8642378    0.2241534 
H    -2.4215163   -7.7053042    1.4386438 
H    -0.9390288   -6.7121849    1.5755055 
H    -0.6011451   -7.0193661   -1.8280587 
H     1.6379332   -3.4296474   -2.6705779 
H     1.0633002   -8.1162488   -2.5148666 
H     2.5290996   -8.0246723   -3.5173720 
H     2.5242637   -7.3107167   -1.8792623 
H     1.1410929   -6.9666340   -5.3966156 
H     0.2386873   -5.4487821   -5.0981090 
H    -0.3239370   -6.9804035   -4.3712801 
H     3.3489564   -5.0698263   -2.9736159 
H     2.4530506   -4.4094507   -4.3739600 
H     3.3147074   -5.9578876   -4.5237431 
