206
Energy =
C     0.9940379    0.8241715   -3.8807352 
C     0.4440809   -0.4619228   -4.0880193 
C    -0.9524630   -0.7065435   -3.9039121 
H     1.1190531   -1.3143727   -4.2392652 
Pd   -0.0494501    0.0393933   -2.0109283 
P    -1.4616759   -0.8519427   -0.4042124 
P     1.4628544    0.7879903   -0.3657753 
H     0.3062990    1.6799571   -3.9679494 
H    -1.6450897    0.1198012   -4.1231917 
C     5.1333849    1.9777847   -4.0414204 
C     4.1134437    2.9243458   -4.2182842 
C     2.7740137    2.5259964   -4.1697708 
C     2.4219229    1.1760227   -3.9498229 
C     3.4613152    0.2326830   -3.7832284 
C     4.8005247    0.6304978   -3.8236851 
H     6.1838914    2.2852651   -4.0719503 
H     4.3579592    3.9779790   -4.3850686 
H     1.9811374    3.2684782   -4.3000044 
H     3.2241318   -0.8180115   -3.6001613 
H     5.5903376   -0.1137195   -3.6779186 
C    -2.6971847   -4.6428760   -4.0055263 
C    -1.3627299   -4.4771946   -3.5978601 
C    -0.7913217   -3.2020005   -3.5667201 
C    -1.5353721   -2.0620813   -3.9501830 
C    -2.8747144   -2.2454574   -4.3539971 
C    -3.4508948   -3.5215726   -4.3787518 
H    -3.1457617   -5.6410779   -4.0295020 
H    -0.7680868   -5.3459766   -3.2950970 
H     0.2374180   -3.0824625   -3.2148578 
H    -3.4691474   -1.3749309   -4.6489916 
H    -4.4950322   -3.6386533   -4.6853154 
C    -4.3025833    4.7686158    1.7415139 
C    -3.2928895    4.0100895    0.8555517 
C    -3.7598317    4.1240038   -0.6190272 
C    -1.9036569    4.6744469    1.0222167 
C    -3.1858118    2.5196962    1.2310642 
C    -2.3501127    1.6693344    0.4736829 
C    -3.9093282    1.9478124    2.2885951 
C    -3.8331436    0.5741353    2.6203332 
C    -4.6918679    0.0139425    3.7694944 
C    -4.3998899   -1.4792088    4.0284286 
C    -4.4038831    0.8063841    5.0691306 
C    -6.1876951    0.1649933    3.3878192 
C    -3.0047028   -0.2415605    1.8421533 
C    -2.2700609    0.3059347    0.7717587 
C    -2.9846602   -1.7535168   -0.8996935 
C    -3.8860889   -0.9671033   -1.6476520 
C    -5.1907542   -1.4077447   -1.8939797 
C    -6.2317335   -0.5345082   -2.6204037 
C    -6.8005430   -1.2936041   -3.8455155 
C    -5.6300342    0.8006467   -3.1082507 
C    -7.3793994   -0.2168282   -1.6254420 
C    -5.5543021   -2.6863926   -1.4110036 
C    -4.6760170   -3.4989172   -0.6774646 
C    -3.3808221   -3.0021312   -0.4106547 
C    -5.0811114   -4.8742180   -0.1112054 
C    -5.0687457   -4.7975117    1.4382185 
C    -6.4906722   -5.3015160   -0.5698729 
C    -4.0674891   -5.9469808   -0.5842962 
C    -0.3537904   -1.9763602    0.5279663 
C    -0.1753393   -3.2952015    0.0543555 
C     0.7317063   -4.1440523    0.6942016 
C     1.4816254   -3.6972237    1.7891279 
C     0.4369730   -1.4842725    1.5933531 
C     1.3496818   -2.3689900    2.2301042 
C     0.3770645   -0.0800936    2.0995596 
C    -0.1166205    0.1266548    3.4124763 
O    -0.5808334   -0.9898377    4.0456540 
C    -0.6874329   -0.9844575    5.4820956 
C     0.6829430   -1.0225962    6.1770282 
C     1.2566534   -2.4317531    6.4144348 
C     1.5734873   -3.2880123    5.1743514 
C     2.6442143   -2.7022421    4.2390480 
O     2.0826583   -1.8269344    3.2436713 
C    -0.1445022    1.4180207    3.9686086 
C     0.3176224    2.5045322    3.2185240 
C     0.8098010    2.3243902    1.9211037 
C     0.8429827    1.0342731    1.3584902 
C     2.2045914    2.4115758   -0.8047521 
C     1.3358560    3.3788804   -1.3490684 
C     1.7986871    4.6709232   -1.6551941 
C     0.8950783    5.7578856   -2.2713329 
C     1.5756674    6.3618163   -3.5267486 
C     0.6769743    6.8761641   -1.2193066 
C    -0.4773933    5.1950023   -2.6953749 
C     3.1491531    4.9603718   -1.3764227 
C     4.0493166    4.0097520   -0.8607087 
C     3.5571482    2.7188102   -0.5899092 
C     5.5070494    4.4109213   -0.5593721 
C     6.3740950    3.1880341   -0.1943409 
C     6.1459706    5.1097010   -1.7850868 
C     5.4961560    5.3910244    0.6434934 
C     2.8200186   -0.4268264   -0.1336578 
C     2.8984532   -1.5518606   -0.9726605 
C     3.9536016   -2.4706074   -0.8391369 
C     4.1029340   -3.7087802   -1.7452465 
C     2.8605057   -3.9259820   -2.6324344 
C     5.3393695   -3.5102007   -2.6595562 
C     4.2996575   -4.9773263   -0.8768632 
C     4.9195972   -2.2133142    0.1532830 
C     4.8464222   -1.1206693    1.0388107 
C     3.7645825   -0.2349258    0.8917633 
C     5.9538189   -0.8991031    2.0881400 
C     7.2398579   -0.4486129    1.3462669 
C     6.2497051   -2.2118442    2.8549033 
C     5.5572399    0.1835770    3.1147329 
H    -5.3202164    4.3494685    1.6521934 
H    -4.0090375    4.7475710    2.8057713 
H    -4.3478496    5.8264494    1.4296398 
H    -4.7571196    3.6676440   -0.7473765 
H    -3.0658606    3.6167595   -1.3110808 
H    -3.8224094    5.1842995   -0.9224795 
H    -1.9468161    5.7344939    0.7149463 
H    -1.5765080    4.6305447    2.0749917 
H    -1.1322029    4.1719985    0.4148899 
H    -1.7679205    2.0630530   -0.3677452 
H    -4.5724417    2.5849371    2.8785380 
H    -4.9989726   -1.8337071    4.8849619 
H    -3.3340124   -1.6472287    4.2597853 
H    -4.6640605   -2.1027451    3.1569017 
H    -3.3374478    0.7297438    5.3440242 
H    -5.0066132    0.4061878    5.9036409 
H    -4.6490439    1.8768974    4.9623275 
H    -6.4617048    1.2228763    3.2316038 
H    -6.4076522   -0.3851834    2.4556812 
H    -6.8318823   -0.2374941    4.1901980 
H    -2.9295793   -1.3128198    2.0416574 
H    -3.5557099    0.0152490   -1.9988566 
H    -7.5692278   -0.6820161   -4.3501596 
H    -7.2700859   -2.2489937   -3.5553060 
H    -6.0044457   -1.5139226   -4.5780466 
H    -6.4049827    1.3900269   -3.6278289 
H    -5.2521932    1.4109696   -2.2689825 
H    -4.8009106    0.6399616   -3.8210549 
H    -6.9891878    0.3130285   -0.7382963 
H    -7.8812172   -1.1366945   -1.2788754 
H    -8.1399640    0.4230905   -2.1077731 
H    -6.5678525   -3.0448809   -1.6063630 
H    -2.6982148   -3.5865903    0.2111179 
H    -5.3512816   -5.7730176    1.8730363 
H    -5.7859785   -4.0385120    1.7970188 
H    -4.0692103   -4.5317670    1.8248568 
H    -7.2678228   -4.6022866   -0.2144672 
H    -6.5574528   -5.3665237   -1.6703816 
H    -6.7290174   -6.2978440   -0.1592688 
H    -4.3425474   -6.9364321   -0.1778557 
H    -4.0563281   -6.0138751   -1.6853988 
H    -3.0406411   -5.7192117   -0.2490404 
H    -0.7433685   -3.6513499   -0.8091314 
H     0.8566769   -5.1724119    0.3394922 
H     2.1811814   -4.3785008    2.2782969 
H    -1.2813193   -1.8839831    5.7132537 
H    -1.2806466   -0.1120417    5.8103388 
H     1.3875610   -0.3997794    5.5943703 
H     0.5794032   -0.5278582    7.1603999 
H     2.1821277   -2.3298171    7.0133576 
H     0.5481049   -2.9953341    7.0515698 
H     1.9257691   -4.2760576    5.5235644 
H     0.6601655   -3.4801324    4.5806289 
H     3.3542419   -2.0643872    4.7902412 
H     3.2335832   -3.4985225    3.7500040 
H    -0.5261656    1.5818520    4.9787994 
H     0.2970382    3.5076948    3.6566416 
H     1.1761583    3.1825961    1.3525225 
H     0.2954742    3.0998076   -1.5451332 
H     0.9269526    7.1365072   -3.9720050 
H     2.5422179    6.8359956   -3.2868267 
H     1.7576660    5.5878628   -4.2930178 
H     0.0277618    7.6701710   -1.6299462 
H     1.6342718    7.3388910   -0.9227634 
H     0.1991856    6.4715736   -0.3109995 
H    -1.0797510    5.9918520   -3.1641059 
H    -1.0501073    4.8134373   -1.8348264 
H    -0.3709943    4.3779066   -3.4321455 
H     3.5194770    5.9688902   -1.5859615 
H     4.2271022    1.9454109   -0.2129585 
H     6.3709964    2.4338394   -1.0011290 
H     7.4176667    3.5054438   -0.0274228 
H     6.0253697    2.7035622    0.7340631 
H     6.1751033    4.4300393   -2.6529110 
H     7.1815253    5.4116349   -1.5491719 
H     5.5952716    6.0194290   -2.0794562 
H     6.5263406    5.6986333    0.8980276 
H     5.0464417    4.9142860    1.5323301 
H     4.9147794    6.3012787    0.4148489 
H     2.1062882   -1.7034016   -1.7120676 
H     2.7060235   -3.0878582   -3.3350301 
H     1.9495885   -4.0405474   -2.0202746 
H     2.9847447   -4.8392415   -3.2390766 
H     6.2601681   -3.3713532   -2.0670305 
H     5.4826081   -4.3902305   -3.3118081 
H     5.2121411   -2.6221395   -3.3033702 
H     5.2160993   -4.9208323   -0.2652814 
H     4.3849773   -5.8701202   -1.5212771 
H     3.4431587   -5.1193807   -0.1958527 
H     5.7629942   -2.9044769    0.2490569 
H     3.6364315    0.6032723    1.5803711 
H     8.0573469   -0.2687593    2.0674474 
H     7.5777398   -1.2193055    0.6315653 
H     7.0632170    0.4827761    0.7824458 
H     6.6067600   -3.0124245    2.1850820 
H     5.3491576   -2.5782700    3.3740420 
H     7.0366092   -2.0386416    3.6099519 
H     5.4386545    1.1745964    2.6428742 
H     4.6090809   -0.0713199    3.6201242 
H     6.3445127    0.2776402    3.8823573 
