197
Energy =
C    -1.8334276    2.5029770    2.0376843 
C    -2.9370243    1.6432307    1.7322973 
C    -2.9565906    0.3174310    2.2243739 
H    -3.6798804    1.9538246    0.9872080 
Pd   -1.1086371    0.7054086    0.9534569 
P    -0.9978727   -1.2827155   -0.2486369 
P     1.1223498    1.2018141    0.5528278 
H    -1.3383648    2.3524420    3.0064361 
H    -2.3088221    0.1110493    3.0914532 
C    -1.2445411    6.4407791    0.3920952 
C    -0.6223039    6.0613822    1.5902756 
C    -0.8167553    4.7767387    2.1098756 
C    -1.6408570    3.8404073    1.4455979 
C    -2.2505168    4.2317571    0.2297693 
C    -2.0600245    5.5182681   -0.2844592 
H    -1.0965961    7.4466308   -0.0142023 
H     0.0142904    6.7699097    2.1302095 
H    -0.3235346    4.4886652    3.0428033 
H    -2.8720193    3.5208189   -0.3255682 
H    -2.5465492    5.8041829   -1.2226426 
C    -5.7923003   -2.8292416    1.5195473 
C    -4.7001110   -3.0221148    2.3784746 
C    -3.7931950   -1.9810593    2.5961930 
C    -3.9534704   -0.7276482    1.9595115 
C    -5.0558736   -0.5519782    1.0919195 
C    -5.9634835   -1.5928727    0.8754864 
H    -6.5103619   -3.6387701    1.3546281 
H    -4.5563578   -3.9835739    2.8823145 
H    -2.9418203   -2.1359934    3.2663170 
H    -5.2083037    0.4046851    0.5844970 
H    -6.8090763   -1.4410000    0.1974771 
C    -0.9181598   -4.3709331    5.0815408 
C     0.2265772   -3.5574806    4.4234051 
C     1.5928512   -4.1227889    4.8849968 
C     0.1322610   -2.0880706    4.8929161 
C     0.0891210   -3.6767535    2.8931521 
C    -0.3457929   -2.6016465    2.1009415 
C     0.3793958   -4.8884186    2.2358103 
C     0.2829198   -5.0532585    0.8378013 
C     0.6811945   -6.3927286    0.1903809 
C     0.5985688   -6.3313687   -1.3495950 
C     2.1442262   -6.7266677    0.5818663 
C    -0.2709124   -7.5046101    0.6990722 
C    -0.1596880   -3.9575202    0.0786069 
C    -0.4879676   -2.7458333    0.7117534 
C    -2.6201979   -1.5928119   -1.0369572 
C    -3.2647907   -0.4692631   -1.5926436 
C    -4.4480825   -0.6151451   -2.3333292 
C    -5.1692963    0.5853325   -2.9771854 
C    -4.5814197    1.9337585   -2.5072333 
C    -6.6726633    0.5619149   -2.6020073 
C    -5.0134182    0.4856593   -4.5169171 
C    -4.9577548   -1.9207018   -2.4914860 
C    -4.3607139   -3.0566396   -1.9108587 
C    -3.1772106   -2.8715511   -1.1699868 
C    -4.9488837   -4.4609385   -2.1515567 
C    -4.5750479   -4.8900566   -3.5952437 
C    -6.4905066   -4.4450315   -2.0073087 
C    -4.3791370   -5.4977195   -1.1572445 
C     0.1644137   -1.2658717   -1.6877407 
C    -0.3404344   -1.2403738   -3.0017804 
C     0.5279999   -1.2400815   -4.1002128 
C     1.9086626   -1.2900749   -3.8988769 
C     1.5674775   -1.3001359   -1.4646140 
C     2.4170587   -1.3481226   -2.5926934 
C     2.1890275   -1.3710947   -0.1080248 
C     2.9446398   -2.5266269    0.2052405 
O     3.0816506   -3.5225952   -0.7435430 
C     4.3743559   -3.5595576   -1.3857005 
C     4.3437183   -2.7340098   -2.6708588 
O     3.7846217   -1.4302672   -2.4069080 
C     3.5427796   -2.6987812    1.4614866 
C     3.4615391   -1.6739288    2.4069742 
C     2.7721559   -0.4944067    2.1028195 
C     2.1204694   -0.3333242    0.8640451 
C     1.6131346    1.7709743   -1.1072375 
C     2.9729098    1.7441700   -1.4780941 
C     3.3699682    2.2142045   -2.7360333 
C     4.8421918    2.2087228   -3.1883578 
C     4.9774963    1.3336624   -4.4610930 
C     5.2821446    3.6630180   -3.4952820 
C     5.7744865    1.6282046   -2.1038645 
C     2.3648985    2.7028242   -3.6039740 
C     1.0018744    2.7326077   -3.2643780 
C     0.6375503    2.2549513   -1.9870343 
C    -0.0884562    3.2397009   -4.2300336 
C     0.5071774    3.8868645   -5.4973398 
C    -0.9685779    4.2905252   -3.5098429 
C    -0.9720863    2.0396750   -4.6562821 
C     1.7713913    2.4475240    1.7317475 
C     2.5214268    3.5515240    1.3034560 
C     2.9858430    4.5085084    2.2265412 
C     3.8450833    5.6820368    1.7153474 
C     4.1178463    6.7267447    2.8171710 
C     5.2008125    5.1089050    1.2217864 
C     3.1325601    6.3890558    0.5340919 
C     2.6804738    4.3177987    3.5885187 
C     1.9247339    3.2187694    4.0510622 
C     1.4589102    2.2990307    3.0964515 
C     1.6115150    2.9814352    5.5426012 
C     0.0810561    2.8360818    5.7418637 
C     2.1107341    4.1371750    6.4341709 
C     2.3122030    1.6709221    5.9887704 
H    -0.8514279   -4.3130566    6.1828065 
H    -1.9049547   -3.9809796    4.7742089 
H    -0.8690593   -5.4345884    4.7903560 
H     1.6982852   -4.0144657    5.9788391 
H     1.6979866   -5.1949498    4.6477965 
H     2.4230545   -3.5823811    4.3992609 
H     0.2894586   -2.0331327    5.9837811 
H    -0.8601745   -1.6493969    4.6844508 
H     0.8982545   -1.4600536    4.4041275 
H    -0.5540255   -1.6242431    2.5437339 
H     0.7181584   -5.7392075    2.8359053 
H     1.2636796   -5.5480625   -1.7534036 
H     0.9108782   -7.2999906   -1.7766620 
H    -0.4311046   -6.1330593   -1.6980865 
H     2.4587213   -7.6735296    0.1077770 
H     2.2607284   -6.8449103    1.6731143 
H     2.8180663   -5.9199417    0.2462794 
H    -1.3171096   -7.2797106    0.4249847 
H     0.0024502   -8.4772830    0.2525347 
H    -0.2223454   -7.6113400    1.7968348 
H    -0.2173794   -4.0215622   -1.0102082 
H    -2.8162525    0.5189125   -1.4430251 
H    -5.1447501    2.7655566   -2.9635829 
H    -3.5243863    2.0529902   -2.7995600 
H    -4.6537751    2.0437490   -1.4100493 
H    -7.1740481   -0.3541851   -2.9567868 
H    -7.1916899    1.4231017   -3.0582029 
H    -6.8068732    0.6220771   -1.5074225 
H    -5.5273480    1.3287086   -5.0126452 
H    -5.4466994   -0.4528780   -4.9038509 
H    -3.9471732    0.5129237   -4.8033293 
H    -5.8665651   -2.0558484   -3.0855519 
H    -2.6783289   -3.7216278   -0.7012087 
H    -4.9762510   -5.8958160   -3.8149759 
H    -4.9873790   -4.1852652   -4.3385401 
H    -3.4784928   -4.9178733   -3.7234205 
H    -6.9722841   -3.7932624   -2.7557674 
H    -6.8924153   -5.4628342   -2.1528187 
H    -6.7906038   -4.0951976   -1.0052159 
H    -3.2938438   -5.6503865   -1.2932782 
H    -4.8689770   -6.4734966   -1.3169883 
H    -4.5554309   -5.1910188   -0.1112149 
H    -1.4195385   -1.2317505   -3.1717045 
H     0.1212836   -1.2119777   -5.1159785 
H     2.6071912   -1.2964617   -4.7407412 
H     4.5963565   -4.6168609   -1.6116127 
H     5.1420034   -3.1730184   -0.6911803 
H     5.3669924   -2.5786815   -3.0535992 
H     3.7441729   -3.2425240   -3.4475907 
H     4.0782714   -3.6294504    1.6706750 
H     3.9480958   -1.7822808    3.3815830 
H     2.7580508    0.3142665    2.8366191 
H     3.7055652    1.3372347   -0.7772897 
H     4.6787537    0.2951334   -4.2384182 
H     6.0252618    1.3302316   -4.8111624 
H     4.3483792    1.7092380   -5.2867072 
H     6.3387467    3.6825660   -3.8167277 
H     5.1823880    4.2992141   -2.5976137 
H     4.6766832    4.1134155   -4.3008106 
H     5.5021745    0.5869289   -1.8594602 
H     6.8157372    1.6330777   -2.4701106 
H     5.7464983    2.2282784   -1.1765509 
H     2.6691787    3.0673164   -4.5882072 
H    -0.4105828    2.2497697   -1.6674828 
H    -0.3082431    4.2550610   -6.1436444 
H     1.1544674    4.7461048   -5.2484125 
H     1.0975852    3.1658040   -6.0895750 
H    -0.3613924    5.1398571   -3.1517526 
H    -1.7392020    4.6787816   -4.1996807 
H    -1.4861213    3.8593091   -2.6375875 
H    -0.3797623    1.3009506   -5.2217297 
H    -1.8050571    2.3827989   -5.2960274 
H    -1.4005061    1.5221964   -3.7805069 
H     2.7435830    3.6684719    0.2398843 
H     4.6936594    6.3001874    3.6571598 
H     4.7106146    7.5593638    2.4010838 
H     3.1786184    7.1485548    3.2174380 
H     5.7327749    4.5948557    2.0413038 
H     5.8465322    5.9226822    0.8458251 
H     5.0544242    4.3834727    0.4018022 
H     2.1497432    6.7833947    0.8421946 
H     3.7483722    7.2323262    0.1745514 
H     2.9704146    5.7080746   -0.3191628 
H     3.0411648    5.0475456    4.3139827 
H     0.8432214    1.4487800    3.4127555 
H    -0.3254239    1.9718955    5.1866007 
H    -0.4521327    3.7429067    5.4063449 
H    -0.1509813    2.6784464    6.8098449 
H     1.6403922    5.0971432    6.1573388 
H     1.8563827    3.9302543    7.4878775 
H     3.2066245    4.2562493    6.3746108 
H     3.4047158    1.7428461    5.8468313 
H     2.1140467    1.4732609    7.0573579 
H     1.9483703    0.8017482    5.4121099 
