200
Energy =
C     0.7942780   -2.9295001    2.1721406 
C     0.7314154   -1.9720514    3.2309881 
C    -0.4650923   -1.2892120    3.5414960 
H     1.6635691   -1.6221952    3.6937582 
Pd    0.1213793   -0.9730033    1.3573399 
P    -0.4753310    1.2489816    0.9790637 
P     0.2163755   -1.4679537   -0.9182140 
H    -0.0995119   -3.5383284    1.9807952 
H    -1.4099717   -1.7222130    3.1743849 
C     4.4758126   -4.6332667    0.7201183 
C     4.4902595   -3.3875068    1.3707528 
C     3.3007892   -2.8261077    1.8429988 
C     2.0656293   -3.4988339    1.6831841 
C     2.0658984   -4.7475836    1.0239146 
C     3.2587461   -5.3085176    0.5512211 
H     5.4077112   -5.0720473    0.3490533 
H     5.4349534   -2.8512088    1.5087456 
H     3.3277734   -1.8450348    2.3302083 
H     1.1192305   -5.2783515    0.8779592 
H     3.2348327   -6.2802998    0.0483882 
C    -0.9179651    1.6864697    6.6110576 
C    -1.8412104    1.6013925    5.5573984 
C    -1.6934263    0.6234832    4.5698822 
C    -0.6063319   -0.2791987    4.6037538 
C     0.3068257   -0.1940908    5.6787599 
C     0.1481869    0.7764379    6.6742188 
H    -1.0343617    2.4517591    7.3850687 
H    -2.6786588    2.3042293    5.5007123 
H    -2.4088769    0.5748538    3.7423295 
H     1.1259181   -0.9161157    5.7572796 
H     0.8536364    0.8147012    7.5106291 
C    -0.1412407    6.8553848    3.8177504 
C    -0.9808516    5.6007435    4.1725733 
C    -2.3530620    5.7156226    3.4741589 
C    -1.2161969    5.5514034    5.7037716 
C    -0.2088538    4.3434497    3.7257154 
C    -0.7010508    3.4767933    2.7350883 
C     1.0450076    4.0455432    4.2981753 
C     1.8059619    2.9148286    3.9414771 
C     3.2103278    2.6828175    4.5330483 
C     3.6583766    1.2110913    4.3833660 
C     4.2017692    3.5888761    3.7550245 
C     3.2502881    3.0499677    6.0355427 
C     1.2686830    2.0555291    2.9672916 
C     0.0394410    2.3473936    2.3506853 
C    -2.2583058    1.5131036    0.6955062 
C    -2.7498431    2.7174163    0.1540660 
C    -4.1282734    2.8972467   -0.0278374 
C    -4.7164590    4.1935903   -0.6160893 
C    -5.5118908    3.8477300   -1.9010010 
C    -3.6151163    5.2093144   -0.9865135 
C    -5.6587494    4.8435420    0.4289487 
C    -4.9910965    1.8369229    0.3379310 
C    -4.5274138    0.6183992    0.8613383 
C    -3.1367041    0.4753550    1.0322529 
C    -5.4564319   -0.5451577    1.2583232 
C    -6.9356784   -0.2446549    0.9424572 
C    -5.0374221   -1.8221049    0.4858962 
C    -5.3149675   -0.7984121    2.7820030 
C     0.3746878    1.9822246   -0.4892518 
C     1.4419293    2.8846320   -0.3042715 
C     2.1220179    3.4109388   -1.4084195 
C     1.7492593    3.0540873   -2.7085889 
C    -0.0155482    1.6066230   -1.7981345 
C     0.6771382    2.1699076   -2.8989136 
C    -1.1652184    0.7035670   -2.1125153 
C    -2.2619703    1.2760133   -2.8022388 
O    -2.2211804    2.6271868   -3.0279869 
C    -2.3480451    3.1233929   -4.3798221 
C    -1.0273911    3.7644475   -4.8146376 
C     0.0759099    2.7624887   -5.1666808 
O     0.2667892    1.7651815   -4.1445278 
C    -3.3672589    0.5032003   -3.1879518 
C    -3.3707607   -0.8690054   -2.9201955 
C    -2.2898056   -1.4640741   -2.2583312 
C    -1.1873412   -0.6895463   -1.8445730 
C     1.7214063   -0.9309815   -1.7964560 
C     1.7728668   -0.9811473   -3.2014255 
C     2.9382097   -0.5891908   -3.8787864 
C     3.0536498   -0.6373052   -5.4141674 
C     4.1632764   -1.6460935   -5.8062958 
C     3.4208428    0.7726602   -5.9423741 
C     1.7288943   -1.0740590   -6.0745205 
C     4.0237810   -0.1322855   -3.1030522 
C     3.9882364   -0.0411453   -1.6980765 
C     2.8140636   -0.4632407   -1.0497929 
C     5.2135190    0.4804772   -0.9227688 
C     5.7063613    1.8139260   -1.5379446 
C     6.3398997   -0.5811548   -1.0147718 
C     4.8802735    0.7334395    0.5634292 
C     0.0344326   -3.2660753   -1.2305245 
C    -1.0101968   -3.9400508   -0.5744243 
C    -1.2158843   -5.3188302   -0.7634552 
C    -2.3958960   -6.0112114   -0.0534685 
C    -3.7174914   -5.4632197   -0.6531046 
C    -2.3478350   -5.6969583    1.4640800 
C    -2.3666310   -7.5431968   -0.2334055 
C    -0.3275342   -5.9993075   -1.6194206 
C     0.7458595   -5.3567917   -2.2718372 
C     0.9164771   -3.9766101   -2.0605371 
C     1.6622523   -6.1271850   -3.2433858 
C     1.9233380   -7.5691168   -2.7461308 
C     0.9445065   -6.1846515   -4.6186013 
C     3.0264495   -5.4201322   -3.4192524 
H    -0.6748849    7.7726299    4.1246027 
H     0.0420512    6.9083276    2.7300883 
H     0.8372511    6.8470198    4.3283298 
H    -2.8788966    6.6166446    3.8339249 
H    -2.2498411    5.8064629    2.3783079 
H    -2.9957279    4.8430986    3.6890345 
H    -1.7489093    6.4599090    6.0363789 
H    -0.2671458    5.4939285    6.2639383 
H    -1.8261490    4.6739874    5.9781560 
H    -1.6655323    3.6686844    2.2623482 
H     1.4455174    4.7266547    5.0548014 
H     4.6397891    1.0691889    4.8674271 
H     2.9367270    0.5268246    4.8617349 
H     3.7709682    0.9162898    3.3259990 
H     4.2043786    3.3334470    2.6804120 
H     3.9245918    4.6530918    3.8527544 
H     5.2285948    3.4619916    4.1433865 
H     3.0561598    4.1222685    6.2070239 
H     2.5022358    2.4701585    6.6019312 
H     4.2494503    2.8295610    6.4499761 
H     1.8092636    1.1540230    2.6600158 
H    -2.0411100    3.4905414   -0.1501334 
H    -6.3527497    3.1637896   -1.6932651 
H    -4.8486523    3.3627344   -2.6369885 
H    -5.9287633    4.7655450   -2.3525537 
H    -3.0379937    5.5262028   -0.0995670 
H    -2.9142716    4.7862752   -1.7261694 
H    -4.0753237    6.1128071   -1.4223631 
H    -6.4922338    4.1730594    0.7011875 
H    -6.0934979    5.7751339    0.0247577 
H    -5.1053900    5.0921719    1.3519390 
H    -6.0658187    1.9738937    0.1940340 
H    -2.7178617   -0.4627821    1.4135848 
H    -7.3029364    0.6338776    1.5013639 
H    -7.5607998   -1.1071273    1.2310348 
H    -7.0917892   -0.0623520   -0.1354693 
H    -3.9933367   -2.1066761    0.7052050 
H    -5.6839533   -2.6714248    0.7695132 
H    -5.1192558   -1.6685990   -0.6034178 
H    -4.2815505   -1.0790637    3.0529358 
H    -5.9802723   -1.6214134    3.0983634 
H    -5.5828911    0.1044016    3.3580499 
H     1.7338948    3.1880863    0.7041895 
H     2.9484692    4.1117083   -1.2524445 
H     2.2882532    3.4559343   -3.5710053 
H    -2.6438368    2.3019242   -5.0583922 
H    -3.1540678    3.8774213   -4.3709399 
H    -1.2075813    4.3971997   -5.7040767 
H    -0.6888229    4.4365415   -4.0054010 
H     1.0235012    3.2893760   -5.3888549 
H    -0.1943189    2.1734407   -6.0582526 
H    -4.2130073    0.9824652   -3.6897961 
H    -4.2224700   -1.4841764   -3.2283119 
H    -2.3028109   -2.5414482   -2.0792707 
H     0.8893464   -1.3090778   -3.7536338 
H     4.2689282   -1.6926511   -6.9049674 
H     5.1418352   -1.3591215   -5.3836764 
H     3.9185928   -2.6584601   -5.4395660 
H     4.3943578    1.1173480   -5.5536285 
H     3.4839185    0.7645758   -7.0450878 
H     2.6533240    1.5048801   -5.6408945 
H     0.9051050   -0.3890257   -5.8087152 
H     1.8409587   -1.0696500   -7.1725787 
H     1.4412904   -2.0978944   -5.7749875 
H     4.9370747    0.1780321   -3.6210695 
H     2.7216978   -0.4202123    0.0389288 
H     6.0282677    1.6927695   -2.5862100 
H     4.9073053    2.5741597   -1.5115248 
H     6.5713081    2.1971953   -0.9682310 
H     7.2323990   -0.2478480   -0.4548426 
H     6.6394821   -0.7540728   -2.0631334 
H     6.0020099   -1.5447089   -0.5959791 
H     4.6075876   -0.1996212    1.0847674 
H     4.0450014    1.4481715    0.6714086 
H     5.7592643    1.1562252    1.0798620 
H    -1.6721540   -3.3751452    0.0924567 
H    -3.7969912   -4.3700475   -0.5219079 
H    -4.5883236   -5.9288510   -0.1577341 
H    -3.7761354   -5.6823622   -1.7335681 
H    -3.1739623   -6.2107036    1.9863638 
H    -1.3958996   -6.0375970    1.9085528 
H    -2.4547487   -4.6159347    1.6651514 
H    -2.4614858   -7.8332835   -1.2943419 
H    -3.2130152   -7.9975800    0.3097577 
H    -1.4350413   -7.9816882    0.1659162 
H    -0.4712211   -7.0689218   -1.7822669 
H     1.7442088   -3.4476800   -2.5348814 
H     1.0006309   -8.1726855   -2.7084773 
H     2.6189023   -8.0814396   -3.4331260 
H     2.3744308   -7.5694754   -1.7385834 
H     1.5633009   -6.7289570   -5.3546908 
H     0.7595893   -5.1667010   -5.0054745 
H    -0.0285397   -6.7000945   -4.5363729 
H     3.5319629   -5.2710274   -2.4492497 
H     2.9235249   -4.4345993   -3.9054271 
H     3.6822012   -6.0331488   -4.0612198 
