197
Energy =
C    -0.6582433   -3.1780887    1.7341491 
C    -0.6149207   -3.7253273    0.4138792 
C     0.5623393   -3.6795572   -0.3652605 
H    -1.5519816   -4.0121418   -0.0800970 
Pd   -0.0521269   -1.5929440    0.3007942 
P     0.3641775   -0.2918984   -1.5842700 
P    -0.0570858    0.2545416    1.7177904 
H     0.2503939   -3.2476373    2.3466177 
H     1.5161667   -3.5094263    0.1610118 
C    -4.2861439   -2.5336911    3.9699311 
C    -4.3476661   -2.7356351    2.5807397 
C    -3.1771573   -2.9457391    1.8462124 
C    -1.9135557   -2.9758784    2.4844591 
C    -1.8678202   -2.7785980    3.8831894 
C    -3.0411059   -2.5567025    4.6145357 
H    -5.2031568   -2.3633387    4.5432575 
H    -5.3147157   -2.7237567    2.0671898 
H    -3.2463901   -3.0766799    0.7607754 
H    -0.9010679   -2.7939560    4.3974203 
H    -2.9807572   -2.4051828    5.6967773 
C     0.9859167   -5.1031137   -4.3984210 
C     1.9111359   -4.1945619   -3.8607481 
C     1.7700881   -3.7456508   -2.5445382 
C     0.6883572   -4.1798862   -1.7441486 
C    -0.2320082   -5.0991163   -2.2957455 
C    -0.0797962   -5.5591701   -3.6082252 
H     1.0994257   -5.4629746   -5.4258330 
H     2.7447697   -3.8321419   -4.4713029 
H     2.4883110   -3.0269660   -2.1352131 
H    -1.0516533   -5.4866514   -1.6823689 
H    -0.7886866   -6.2885312   -4.0131760 
C    -4.9851344   -0.1132681   -0.3780615 
C    -5.2200943    1.0987006    0.5506662 
C    -6.1787903    0.6825834    1.6967042 
C    -5.8745443    2.2249477   -0.2865799 
C    -3.9031152    1.5905191    1.1820998 
C    -2.7358891    0.8048823    1.1794414 
C    -3.8403743    2.8465347    1.8149666 
C    -2.6686287    3.3584656    2.4112396 
C    -2.6787989    4.7583556    3.0536326 
C    -3.6999337    4.7738676    4.2194662 
C    -3.0843876    5.8036798    1.9824570 
C    -1.2902060    5.1460505    3.6039910 
C    -1.5168873    2.5577803    2.3736775 
C    -1.5583289    1.2864346    1.7710666 
C     0.3178164   -0.2359101    3.4453517 
C     1.3418479   -1.1831172    3.6492486 
C     1.6548805   -1.6380490    4.9399316 
C     2.7337432   -2.7069556    5.1996350 
C     2.0566732   -3.9524554    5.8288989 
C     3.4433065   -3.1424423    3.9000189 
C     3.7990703   -2.1415556    6.1728226 
C     0.9121581   -1.1059960    6.0163739 
C    -0.1235232   -0.1684096    5.8454805 
C    -0.4176045    0.2547927    4.5342883 
C    -0.8735662    0.3984383    7.0673343 
C    -1.3315634   -0.7480945    8.0026251 
C    -2.1191437    1.2111600    6.6504877 
C     0.0986426    1.3310602    7.8369756 
C     1.3058248    1.4187926    1.2481443 
C     2.5099285    1.4140311    1.9786544 
C     3.5729011    2.2486632    1.6135363 
C     3.4333724    3.1265570    0.5356454 
C     1.1551375    2.2915635    0.1353153 
C     2.2222037    3.1680029   -0.1699203 
C    -0.0842106    2.3741882   -0.6950634 
C    -0.8035228    3.5909795   -0.7062939 
O    -0.3362483    4.6583234    0.0376004 
C     0.3182948    5.6849534   -0.7376146 
C     1.8223146    5.4268116   -0.7901664 
O     2.0801366    4.0691249   -1.2084606 
C    -1.9957962    3.7327155   -1.4312148 
C    -2.4567253    2.6720920   -2.2154226 
C    -1.7315669    1.4759518   -2.2716372 
C    -0.5536346    1.3141540   -1.5171095 
C     2.0948661    0.1850939   -1.9061056 
C     2.4071689    1.1908486   -2.8387674 
C     3.7450103    1.5466643   -3.0740353 
C     4.1375054    2.6479521   -4.0769743 
C     4.9949910    2.0204403   -5.2053455 
C     4.9520010    3.7400813   -3.3365103 
C     2.8984730    3.3182460   -4.7076450 
C     4.7427882    0.8679575   -2.3426764 
C     4.4580602   -0.1166394   -1.3766082 
C     3.1079608   -0.4493040   -1.1702831 
C     5.5941618   -0.8127618   -0.6028638 
C     6.5972543    0.2364631   -0.0624688 
C     6.3236698   -1.7785343   -1.5721543 
C     5.0522955   -1.6199838    0.5974774 
C    -0.2958093   -1.0922920   -3.0934887 
C    -1.5042710   -1.7984619   -2.9526246 
C    -2.1580775   -2.3355548   -4.0743946 
C    -3.5404130   -3.0080746   -3.9594267 
C    -3.6167033   -4.2706418   -4.8509526 
C    -4.6058392   -1.9800877   -4.4248065 
C    -3.8569599   -3.4249147   -2.5054823 
C    -1.5355374   -2.1704854   -5.3276866 
C    -0.3048677   -1.5028336   -5.4953647 
C     0.3079963   -0.9582863   -4.3535997 
C     0.3150420   -1.3680779   -6.9004498 
C    -0.6645474   -0.5828601   -7.8105262 
C     1.6625888   -0.6150883   -6.8686887 
C     0.5593281   -2.7785202   -7.4946624 
H    -5.9336035   -0.4067295   -0.8603601 
H    -4.2566318    0.1263702   -1.1730400 
H    -4.6131222   -0.9888171    0.1793032 
H    -7.1339899    0.3080711    1.2860146 
H    -5.7259805   -0.1123553    2.3139451 
H    -6.4014432    1.5396931    2.3561252 
H    -6.7974931    1.8519694   -0.7644514 
H    -5.1897477    2.5738793   -1.0783420 
H    -6.1538282    3.0947777    0.3316645 
H    -2.7190586   -0.1803700    0.7053656 
H    -4.7432526    3.4649418    1.8345647 
H    -3.7231554    5.7709708    4.6943090 
H    -4.7215067    4.5429483    3.8707473 
H    -3.4276201    4.0303384    4.9894417 
H    -3.0951776    6.8166188    2.4232786 
H    -4.0912053    5.6046726    1.5758608 
H    -2.3622176    5.7885305    1.1485720 
H    -0.9562505    4.4527022    4.3969388 
H    -1.3346103    6.1570496    4.0446518 
H    -0.5318409    5.1550417    2.8018697 
H    -0.5724699    2.9205274    2.7857537 
H     1.8834446   -1.5705065    2.7806820 
H     1.5666349   -3.7092572    6.7872196 
H     2.8066502   -4.7398138    6.0225055 
H     1.2892019   -4.3661120    5.1503202 
H     3.9549900   -2.2970171    3.4081581 
H     2.7381211   -3.5902714    3.1760607 
H     4.2057351   -3.9059291    4.1309430 
H     4.5750941   -2.9015640    6.3726154 
H     4.2897639   -1.2507901    5.7425097 
H     3.3560725   -1.8519427    7.1409856 
H     1.1477197   -1.4467574    7.0295498 
H    -1.2293726    0.9606683    4.3537779 
H    -2.0108962   -1.4410606    7.4768543 
H    -1.8712205   -0.3329359    8.8716565 
H    -0.4811401   -1.3337285    8.3910519 
H    -1.8510437    2.1013172    6.0546224 
H    -2.8237145    0.5996630    6.0590766 
H    -2.6488341    1.5655114    7.5513419 
H     0.9924047    0.7818173    8.1813915 
H     0.4364601    2.1616136    7.1924567 
H    -0.4019751    1.7605206    8.7231577 
H     2.6162831    0.7644088    2.8507222 
H     4.5061898    2.2227196    2.1850145 
H     4.2455193    3.7944204    0.2340697 
H    -0.1098579    5.7073244   -1.7562030 
H     0.1118360    6.6491595   -0.2416565 
H     2.2833815    5.6013598    0.1989401 
H     2.3005126    6.0918230   -1.5300149 
H    -2.5401235    4.6798791   -1.3755163 
H    -3.3765694    2.7787045   -2.7990440 
H    -2.0798769    0.6658798   -2.9173790 
H     1.5952142    1.7129142   -3.3497369 
H     4.4255286    1.2401422   -5.7410204 
H     5.9159224    1.5586045   -4.8087247 
H     5.2926133    2.7941743   -5.9354408 
H     4.3450509    4.1785497   -2.5260451 
H     5.8797381    3.3345445   -2.8969786 
H     5.2377955    4.5433992   -4.0387980 
H     2.2929470    2.5979503   -5.2862634 
H     3.2207399    4.1125578   -5.4029163 
H     2.2574261    3.7768904   -3.9349322 
H     5.7892726    1.1346299   -2.5217183 
H     2.8193172   -1.1854126   -0.4148276 
H     7.3946212   -0.2638744    0.5147597 
H     7.0838425    0.8014701   -0.8752785 
H     6.0891096    0.9586932    0.5995133 
H     5.6267624   -2.5418399   -1.9619667 
H     7.1502901   -2.2964686   -1.0533895 
H     6.7472657   -1.2331364   -2.4335243 
H     5.8914303   -2.0588712    1.1640424 
H     4.4754053   -0.9749250    1.2840030 
H     4.4028297   -2.4546609    0.2782128 
H    -1.9370963   -1.9032029   -1.9519387 
H    -3.4990215   -4.0315582   -5.9213492 
H    -4.5996181   -4.7585697   -4.7305635 
H    -2.8323040   -4.9949884   -4.5735256 
H    -4.4253677   -1.6671060   -5.4679361 
H    -5.6185497   -2.4182964   -4.3660406 
H    -4.5820669   -1.0775994   -3.7879796 
H    -3.0859335   -4.1103735   -2.1119937 
H    -4.8276507   -3.9483636   -2.4700572 
H    -3.9297386   -2.5548304   -1.8306228 
H    -2.0303417   -2.5793123   -6.2140195 
H     1.2596815   -0.4314540   -4.4359390 
H    -0.2375039   -0.4690150   -8.8228184 
H    -0.8577117    0.4240813   -7.4006014 
H    -1.6333975   -1.1018644   -7.9106658 
H     2.4070376   -1.1334269   -6.2382314 
H     2.0754796   -0.5505583   -7.8899465 
H     1.5477566    0.4161628   -6.4903248 
H     0.9775181   -2.6957362   -8.5135404 
H    -0.3740202   -3.3638959   -7.5591388 
H     1.2733299   -3.3442063   -6.8723199 
