206
Energy =
C     0.5710433    1.3062601   -3.5683726 
C    -0.6937417    0.6769168   -3.8110951 
C    -1.8550533    1.1554369   -3.1618622 
H    -0.7354899   -0.2771437   -4.3506383 
Pd   -0.2597753    0.5470239   -1.6614136 
P    -1.5189717   -0.6508151   -0.1144187 
P     1.4845523    1.0018939   -0.1809395 
H     0.5690070    2.3889306   -3.3842820 
H    -1.8073047    2.1836588   -2.7681692 
C     4.4076519   -0.2984005   -4.6947999 
C     4.2707956    1.0495310   -4.3324367 
C     3.0167233    1.5677818   -3.9877830 
C     1.8681751    0.7432323   -3.9882713 
C     2.0214599   -0.6157855   -4.3540843 
C     3.2729642   -1.1268246   -4.7100670 
H     5.3885569   -0.7015258   -4.9667620 
H     5.1467400    1.7056339   -4.3207667 
H     2.9221938    2.6217575   -3.7045438 
H     1.1557070   -1.2850934   -4.3474025 
H     3.3665280   -2.1797888   -4.9960780 
C    -5.8569839   -0.3995095   -3.1868410 
C    -5.5301237    0.7389393   -2.4349825 
C    -4.2221677    1.2309285   -2.4505016 
C    -3.2111533    0.5946754   -3.2089074 
C    -3.5556065   -0.5547744   -3.9562690 
C    -4.8649350   -1.0445270   -3.9434908 
H    -6.8830164   -0.7809648   -3.1866999 
H    -6.2954920    1.2465301   -1.8386136 
H    -3.9704381    2.1184190   -1.8617730 
H    -2.7988603   -1.0672502   -4.5565407 
H    -5.1136685   -1.9373277   -4.5255488 
C    -4.7404054   -1.6323944    4.1559073 
C    -5.1553298   -0.1759373    3.8568010 
C    -6.6222489   -0.1649457    3.3512975 
C    -5.0665681    0.6364625    5.1724969 
C    -4.2659127    0.4596943    2.7696577 
C    -3.3590152   -0.2965102    2.0056675 
C    -4.3804203    1.8346913    2.4797229 
C    -3.6232150    2.4806113    1.4822384 
C    -3.7856138    3.9930103    1.2383463 
C    -3.6207280    4.7609587    2.5741384 
C    -2.7319968    4.5275908    0.2447780 
C    -5.1999993    4.2542502    0.6593050 
C    -2.7514216    1.6884063    0.7183620 
C    -2.6345458    0.3100973    0.9637616 
C    -2.5081406   -1.9151540   -1.0069594 
C    -3.8207651   -2.2582023   -0.6503061 
C    -4.4832035   -3.3176822   -1.2990522 
C    -5.8874640   -3.7838222   -0.8668024 
C    -6.7845556   -4.0499123   -2.1007512 
C    -6.5869898   -2.7368165    0.0266875 
C    -5.7242432   -5.1002494   -0.0614184 
C    -3.7947482   -3.9952669   -2.3229906 
C    -2.4993027   -3.6378487   -2.7465946 
C    -1.8627173   -2.5851473   -2.0670829 
C    -1.8129947   -4.4158396   -3.8871550 
C    -1.3164610   -5.7704347   -3.3176300 
C    -2.8082300   -4.6717007   -5.0459673 
C    -0.6058133   -3.6450842   -4.4625686 
C    -0.4555362   -1.6447864    1.0198204 
C    -0.3435887   -3.0410012    0.8635564 
C     0.5113857   -3.7675181    1.6988823 
C     1.2512880   -3.1275810    2.6987748 
C     0.2940203   -0.9750571    2.0160159 
C     1.1365203   -1.7360414    2.8675138 
C     0.1950432    0.4924008    2.2840004 
C    -0.4343946    0.8869732    3.4936966 
O    -0.9464226   -0.1279348    4.2475021 
C    -1.1837450    0.1045333    5.6483594 
C     0.1191669    0.2243662    6.4556192 
C     0.6917417   -1.1084932    6.9706348 
C     1.1179406   -2.1495446    5.9193567 
C     2.2699515   -1.7165996    4.9967591 
O     1.8123111   -1.0268345    3.8179025 
C    -0.5175464    2.2458424    3.8464522 
C     0.0424540    3.2133324    3.0058708 
C     0.6794554    2.8472061    1.8156939 
C     0.7557818    1.4886290    1.4476937 
C     2.4132786    2.4788540   -0.7556170 
C     1.6529743    3.5575554   -1.2525554 
C     2.2764274    4.6989993   -1.7797642 
C     1.4801883    5.8701838   -2.3862860 
C    -0.0432574    5.6687803   -2.2464768 
C     1.8261695    5.9724811   -3.8947681 
C     1.8654999    7.1886416   -1.6691581 
C     3.6874210    4.7284566   -1.7789822 
C     4.4765298    3.6699945   -1.2922786 
C     3.8151106    2.5318991   -0.7881685 
C     6.0135477    3.7904360   -1.2922200 
C     6.5222174    4.1884423   -2.7002989 
C     6.4141660    4.8887295   -0.2721188 
C     6.6927264    2.4661756   -0.8843245 
C     2.7085946   -0.3006437    0.1789489 
C     2.6988150   -1.4686164   -0.6006954 
C     3.6420177   -2.4846546   -0.3663084 
C     3.6696258   -3.7902288   -1.1836864 
C     2.4011077   -3.9430434   -2.0484684 
C     4.9110095   -3.7622438   -2.1128335 
C     3.7565326   -5.0106668   -0.2337908 
C     4.6044683   -2.2607820    0.6369384 
C     4.6388975   -1.0991705    1.4350414 
C     3.6539945   -0.1233725    1.2067898 
C     5.7549937   -0.9188959    2.4829778 
C     7.1079589   -0.7713125    1.7383495 
C     5.8226754   -2.1561311    3.4123093 
C     5.5247506    0.3349004    3.3527611 
H    -4.8772822   -2.2876906    3.2776493 
H    -3.6831309   -1.6934140    4.4687267 
H    -5.3643085   -2.0390648    4.9702960 
H    -6.7175089   -0.7312353    2.4089664 
H    -6.9740165    0.8648657    3.1654300 
H    -7.2910278   -0.6238642    4.1014900 
H    -5.7060396    0.1755819    5.9457794 
H    -4.0314355    0.6604922    5.5514903 
H    -5.4056339    1.6780629    5.0403828 
H    -3.2001807   -1.3565348    2.2156262 
H    -5.0877545    2.4320089    3.0640455 
H    -3.7165385    5.8478688    2.4030964 
H    -2.6291191    4.5629447    3.0157188 
H    -4.3878261    4.4720907    3.3126368 
H    -1.7067902    4.3260800    0.6017862 
H    -2.8467563    5.6189646    0.1281691 
H    -2.8418732    4.0794833   -0.7590903 
H    -5.3374248    3.7199099   -0.2976520 
H    -5.9876922    3.9137641    1.3536657 
H    -5.3497315    5.3334784    0.4764128 
H    -2.1307040    2.1281897   -0.0670699 
H    -4.3226592   -1.6982364    0.1399085 
H    -7.7915319   -4.3625950   -1.7733976 
H    -6.3838967   -4.8538937   -2.7411885 
H    -6.8887845   -3.1415615   -2.7174013 
H    -7.6085577   -3.0755685    0.2701722 
H    -6.0533530   -2.5929116    0.9819379 
H    -6.6598473   -1.7574283   -0.4781384 
H    -5.0938992   -4.9374871    0.8306450 
H    -5.2494243   -5.8860563   -0.6748505 
H    -6.7094783   -5.4730376    0.2720552 
H    -4.2938035   -4.8313537   -2.8208301 
H    -0.8494613   -2.2747226   -2.3452129 
H    -0.8270266   -6.3678243   -4.1079045 
H    -2.1559125   -6.3602450   -2.9101405 
H    -0.5868061   -5.6073751   -2.5046682 
H    -3.6562436   -5.3055625   -4.7371884 
H    -3.2149924   -3.7209686   -5.4345583 
H    -2.2960905   -5.1900973   -5.8752029 
H    -0.1597450   -4.2139239   -5.2960588 
H    -0.9116306   -2.6590084   -4.8562579 
H     0.1841644   -3.4907949   -3.7104906 
H    -0.9336394   -3.5605899    0.1048373 
H     0.5927069   -4.8528915    1.5795387 
H     1.9076507   -3.7140283    3.3453981 
H    -1.7790828   -0.7654428    5.9705208 
H    -1.8194837    0.9992192    5.7762068 
H     0.8632924    0.7630816    5.8394110 
H    -0.0793731    0.8712729    7.3299262 
H     1.5635071   -0.8838096    7.6149459 
H    -0.0590411   -1.5780128    7.6352291 
H     1.4366711   -3.0623315    6.4555373 
H     0.2601496   -2.4498520    5.2888011 
H     2.9358825   -0.9916303    5.4927877 
H     2.8923248   -2.5816445    4.7053797 
H    -1.0071231    2.5529951    4.7731324 
H    -0.0087663    4.2694880    3.2903339 
H     1.1333190    3.6161304    1.1861737 
H     0.5610703    3.4831759   -1.2363255 
H    -0.5745599    6.5293363   -2.6876766 
H    -0.3899684    4.7622360   -2.7754752 
H    -0.3496078    5.5914309   -1.1892187 
H     1.2669900    6.8027432   -4.3617424 
H     1.5609813    5.0381507   -4.4214396 
H     2.9024961    6.1571304   -4.0534609 
H     1.3030644    8.0356926   -2.1003081 
H     2.9407357    7.4129463   -1.7737970 
H     1.6327253    7.1310275   -0.5912914 
H     4.1903081    5.6125194   -2.1837887 
H     4.3888487    1.6755910   -0.4310533 
H     6.1167710    5.1605062   -3.0287133 
H     7.6231566    4.2724669   -2.6951077 
H     6.2397553    3.4309660   -3.4515209 
H     5.9776020    5.8664610   -0.5408464 
H     7.5126904    5.0023173   -0.2423136 
H     6.0647334    4.6269521    0.7421009 
H     7.7894989    2.5822011   -0.9219446 
H     6.4148060    1.6384784   -1.5608374 
H     6.4265477    2.1740618    0.1463936 
H     1.9383728   -1.5703688   -1.3796647 
H     2.3274908   -3.1400778   -2.8001987 
H     1.4874469   -3.9245661   -1.4279539 
H     2.4269694   -4.9045251   -2.5903034 
H     5.8453564   -3.6934036   -1.5286329 
H     4.9572780   -4.6822886   -2.7232554 
H     4.8689250   -2.8926999   -2.7913617 
H     4.6829202   -5.0051025    0.3654571 
H     3.7468624   -5.9473119   -0.8189417 
H     2.8996126   -5.0248914    0.4612930 
H     5.3649378   -3.0296088    0.8072381 
H     3.6059976    0.7780820    1.8220892 
H     7.9314253   -0.6339048    2.4620511 
H     7.3328973   -1.6661288    1.1323201 
H     7.0918573    0.1002100    1.0619372 
H     6.0443022   -3.0811384    2.8532951 
H     4.8678707   -2.3004096    3.9440234 
H     6.6201449   -2.0231355    4.1645817 
H     5.5557290    1.2609981    2.7516321 
H     4.5500324    0.2925186    3.8695988 
H     6.3171508    0.4107758    4.1172613 
