200
Energy =
C     0.8226144   -2.9207910    2.1640352 
C     0.7005297   -1.9800973    3.2341188 
C    -0.5212126   -1.3273717    3.5070201 
H     1.6065370   -1.6150263    3.7347438 
Pd    0.1381437   -0.9729284    1.3505028 
P    -0.4363552    1.2581006    0.9911889 
P     0.2522521   -1.4548701   -0.9257372 
H    -0.0467612   -3.5511000    1.9351543 
H    -1.4411301   -1.7753103    3.0968018 
C     4.5890226   -4.4607867    0.7450721 
C     4.5563151   -3.2688246    1.4886970 
C     3.3397081   -2.7616503    1.9531578 
C     2.1234023   -3.4397369    1.6971305 
C     2.1719709   -4.6386621    0.9513016 
C     3.3916484   -5.1407912    0.4807682 
H     5.5419355   -4.8554025    0.3778439 
H     5.4852961   -2.7306716    1.7041372 
H     3.3330982   -1.8186813    2.5110245 
H     1.2419680   -5.1757558    0.7358063 
H     3.4053741   -6.0719456   -0.0940285 
C    -1.1832504    1.6158799    6.5677797 
C    -2.0756050    1.4916126    5.4914520 
C    -1.8572186    0.5246138    4.5060688 
C    -0.7294031   -0.3258911    4.5654003 
C     0.1558901   -0.1964729    5.6590535 
C    -0.0732109    0.7620220    6.6519536 
H    -1.3565814    2.3679376    7.3439852 
H    -2.9441774    2.1542805    5.4174647 
H    -2.5500665    0.4418650    3.6614750 
H     1.0090185   -0.8756172    5.7544003 
H     0.6105477    0.8343988    7.5039139 
C     3.2441001    2.8595722    6.1344261 
C     3.2288860    2.5550118    4.6174647 
C     3.6654770    1.0859578    4.4169043 
C     4.2437332    3.4804428    3.8948075 
C     1.8369783    2.8244891    4.0122826 
C     1.3004908    2.0000012    3.0082702 
C     1.0856204    3.9535985    4.3937556 
C    -0.1609156    4.2794054    3.8206848 
C    -0.9236291    5.5330885    4.2932053 
C    -2.2803121    5.6902810    3.5731179 
C    -1.1903572    5.4376913    5.8168655 
C    -0.0604748    6.7864278    3.9950648 
C    -0.6557080    3.4432148    2.8054423 
C     0.0773939    2.3194900    2.3922808 
C    -2.2088662    1.5533903    0.6765045 
C    -2.6787165    2.7883783    0.1964583 
C    -4.0541119    2.9883498   -0.0102466 
C    -4.6208320    4.3257196   -0.5237005 
C    -5.4465529    4.0694494   -1.8100124 
C    -3.5008755    5.3330195   -0.8599628 
C    -5.5310764    4.9395954    0.5706931 
C    -4.9244294    1.9124586    0.2636745 
C    -4.4779751    0.6516997    0.7066682 
C    -3.0982021    0.4923723    0.9128484 
C    -5.4780195   -0.4922787    0.9597552 
C    -6.3728698   -0.1139146    2.1676775 
C    -6.3581509   -0.7052765   -0.2975130 
C    -4.7559778   -1.8213378    1.2717622 
C     0.4461776    1.9963165   -0.4547160 
C     1.5176213    2.8889014   -0.2503915 
C     2.2169911    3.4177574   -1.3420140 
C     1.8590200    3.0684437   -2.6483942 
C     0.0689559    1.6321654   -1.7713878 
C     0.7803376    2.1961207   -2.8581890 
C    -1.0918342    0.7484530   -2.1001584 
C    -2.1803930    1.3496841   -2.7794119 
O    -2.0865005    2.7020568   -2.9952260 
C    -2.4105881    3.2152013   -4.3022658 
C    -1.4783650    2.6805989   -5.3931120 
C     0.0136040    2.8206064   -5.0774662 
O     0.4047376    1.8112744   -4.1190417 
C    -3.3027541    0.6015511   -3.1639396 
C    -3.3306886   -0.7725498   -2.9044471 
C    -2.2577199   -1.3961011   -2.2567189 
C    -1.1374520   -0.6454778   -1.8455452 
C     1.7683281   -0.9361334   -1.7937503 
C     1.8236693   -0.9639951   -3.1992528 
C     2.9917709   -0.5632077   -3.8663797 
C     3.1080105   -0.5712909   -5.4022327 
C     1.7877046   -1.0030362   -6.0744078 
C     4.2279950   -1.5569888   -5.8218815 
C     3.4577037    0.8581622   -5.8895475 
C     4.0768019   -0.1237469   -3.0799294 
C     4.0382044   -0.0566386   -1.6738029 
C     2.8608238   -0.4856764   -1.0358832 
C     5.2625034    0.4477640   -0.8856673 
C     4.9156342    0.7068647    0.5965526 
C     5.7836866    1.7730113   -1.4947896 
C     6.3726938   -0.6318923   -0.9653680 
C     0.0300616   -3.2470936   -1.2439386 
C     0.8815569   -3.9737310   -2.0933524 
C     0.6779963   -5.3496612   -2.3003643 
C     1.5537542   -6.1566232   -3.2794384 
C     1.9702998   -7.5114253   -2.6553055 
C     2.8354179   -5.3876644   -3.6701577 
C     0.7171622   -6.4200703   -4.5597655 
C    -0.3921351   -5.9719305   -1.6216448 
C    -1.2492991   -5.2758037   -0.7479635 
C    -1.0151316   -3.8997897   -0.5682987 
C    -2.4270673   -5.9461957   -0.0137545 
C    -2.4038469   -7.4822110   -0.1579143 
C    -2.3701903   -5.5965393    1.4957441 
C    -3.7497436   -5.4075261   -0.6193266 
H     4.2346663    2.6169860    6.5570602 
H     2.4837001    2.2604724    6.6634044 
H     3.0510016    3.9245821    6.3469547 
H     4.6373019    0.9146828    4.9106547 
H     2.9302263    0.3900990    4.8570390 
H     3.7921844    0.8321642    3.3506554 
H     5.2616992    3.3278670    4.2969332 
H     3.9750262    4.5427793    4.0291663 
H     4.2641871    3.2671974    2.8111750 
H     1.8360657    1.1035256    2.6780033 
H     1.4871114    4.6095094    5.1719556 
H    -2.7992671    6.5883446    3.9498785 
H    -2.1545381    5.8119452    2.4826841 
H    -2.9401983    4.8220623    3.7498124 
H    -1.8238784    4.5646995    6.0477300 
H    -0.2540332    5.3402686    6.3926898 
H    -1.7106474    6.3457459    6.1699270 
H     0.9069020    6.7496524    4.5251908 
H     0.1462493    6.8707152    2.9136165 
H    -0.5886001    7.7007843    4.3195549 
H    -1.6166974    3.6557437    2.3350382 
H    -1.9592373    3.5748916   -0.0409912 
H    -6.3040665    3.4004182   -1.6238961 
H    -4.8127259    3.6055906   -2.5846921 
H    -5.8434382    5.0208724   -2.2062398 
H    -2.9110789    5.6015658    0.0343095 
H    -2.8127794    4.9265464   -1.6208823 
H    -3.9441465    6.2633131   -1.2549697 
H    -6.3714481    4.2698362    0.8233004 
H    -5.9548868    5.8989179    0.2235713 
H    -4.9567462    5.1292892    1.4947343 
H    -5.9984488    2.0592543    0.1078699 
H    -2.6844719   -0.4669069    1.2360291 
H    -5.7615018    0.0372065    3.0750358 
H    -7.1044059   -0.9161004    2.3723942 
H    -6.9334767    0.8174275    1.9761257 
H    -5.7323578   -0.9548204   -1.1714233 
H    -7.0696655   -1.5330589   -0.1291430 
H    -6.9465776    0.1946808   -0.5447061 
H    -4.0786668   -2.1110226    0.4487786 
H    -5.4961548   -2.6293859    1.4014214 
H    -4.1659968   -1.7618395    2.2041025 
H     1.7989270    3.1818448    0.7644319 
H     3.0486171    4.1086346   -1.1701015 
H     2.4107045    3.4604974   -3.5079786 
H    -3.4677224    3.0096680   -4.5575000 
H    -2.3019374    4.3062404   -4.1886589 
H    -1.6895321    1.6132836   -5.5868933 
H    -1.7027020    3.2277298   -6.3281382 
H     0.2539124    3.8268547   -4.6866396 
H     0.6125897    2.6474723   -5.9880955 
H    -4.1446312    1.0910900   -3.6609965 
H    -4.1944654   -1.3681639   -3.2171658 
H    -2.2878379   -2.4754205   -2.0907665 
H     0.9394205   -1.2753006   -3.7598605 
H     1.9024956   -0.9758580   -7.1718835 
H     1.5058128   -2.0344383   -5.7961812 
H     0.9596146   -0.3277095   -5.7973402 
H     3.9948520   -2.5817406   -5.4828370 
H     4.3336287   -1.5718982   -6.9214694 
H     5.2038828   -1.2711624   -5.3923165 
H     4.4300787    1.2006574   -5.4958739 
H     3.5141417    0.8845854   -6.9924166 
H     2.6836225    1.5702791   -5.5577487 
H     4.9913054    0.1947572   -3.5905784 
H     2.7656693   -0.4601121    0.0532198 
H     4.0896698    1.4339431    0.6936324 
H     4.6226924   -0.2213963    1.1147400 
H     5.7949094    1.1169475    1.1228255 
H     6.6441006    2.1449805   -0.9109105 
H     4.9950908    2.5445171   -1.4830457 
H     6.1225110    1.6461411   -2.5370001 
H     6.6795339   -0.8093348   -2.0109362 
H     6.0150103   -1.5895805   -0.5497790 
H     7.2647029   -0.3126095   -0.3964175 
H     1.7096807   -3.4593108   -2.5827770 
H     2.5385381   -7.3613201   -1.7211802 
H     2.6111570   -8.0690850   -3.3603286 
H     1.1006952   -8.1504070   -2.4261017 
H     3.4579424   -6.0157039   -4.3302308 
H     2.6078080   -4.4577925   -4.2202929 
H     3.4361163   -5.1235931   -2.7817543 
H    -0.1978681   -6.9927569   -4.3277551 
H     1.3075527   -6.9982997   -5.2931085 
H     0.4136308   -5.4686326   -5.0311266 
H    -0.5575241   -7.0396439   -1.7810506 
H    -1.6532011   -3.3207627    0.1097018 
H    -1.4676637   -7.9129920    0.2390021 
H    -3.2440331   -7.9214806    0.4068421 
H    -2.5138543   -7.7975780   -1.2101374 
H    -3.1925573   -6.0993990    2.0341524 
H    -2.4782719   -4.5116294    1.6735436 
H    -1.4151601   -5.9263426    1.9418864 
H    -3.8154454   -5.6516775   -1.6939769 
H    -3.8229662   -4.3111311   -0.5131495 
H    -4.6198693   -5.8569198   -0.1079502 
