197
Energy =
C    -1.7401678    2.6741116    1.8395983 
C    -2.9022154    1.8789429    1.5906579 
C    -3.0311879    0.5756936    2.1193927 
H    -3.6195333    2.2005444    0.8248537 
Pd   -1.1308414    0.7678623    0.8790346 
P    -1.0267180   -1.2649808   -0.2508453 
P     1.1280130    1.2060979    0.5292681 
H    -1.2485953    2.5700742    2.8156575 
H    -2.3861128    0.3048149    2.9714538 
C    -0.8251403    6.3300589   -0.2498960 
C    -1.7523283    5.4262539   -0.7959706 
C    -2.0560039    4.2375221   -0.1266462 
C    -1.4512774    3.9276746    1.1155838 
C    -0.5247158    4.8480806    1.6550206 
C    -0.2148987    6.0336312    0.9772359 
H    -0.5841431    7.2584240   -0.7777800 
H    -2.2375889    5.6489549   -1.7520200 
H    -2.7630232    3.5352332   -0.5819744 
H    -0.0404404    4.6249401    2.6117864 
H     0.5060937    6.7315086    1.4139784 
C    -6.3160117   -2.1112102    1.4373532 
C    -5.0790405   -2.5958910    1.8905545 
C    -4.0208856   -1.7122981    2.1213845 
C    -4.1702408   -0.3267438    1.8826055 
C    -5.4231820    0.1489839    1.4350289 
C    -6.4859915   -0.7354858    1.2211018 
H    -7.1479596   -2.8007303    1.2627263 
H    -4.9373068   -3.6681530    2.0613172 
H    -3.0542288   -2.0987428    2.4622338 
H    -5.5795144    1.2224506    1.2887309 
H    -7.4570318   -0.3481251    0.8964077 
C     0.0665064   -2.0563063    4.8988286 
C     0.2667938   -3.5109003    4.4187989 
C    -0.8264348   -4.4053961    5.0583832 
C     1.6656492   -3.9843522    4.8862115 
C     0.1549308   -3.6237246    2.8863829 
C    -0.3066859   -2.5578554    2.0956848 
C     0.4984540   -4.8191691    2.2251413 
C     0.4283261   -4.9769819    0.8245813 
C     0.8681164   -6.3023503    0.1743042 
C     2.3434228   -6.5881404    0.5566732 
C    -0.0444034   -7.4447722    0.6884099 
C     0.7743505   -6.2459807   -1.3652783 
C    -0.0357645   -3.8894021    0.0665598 
C    -0.4172656   -2.6945841    0.7028968 
C    -2.6496213   -1.7108484   -0.9714188 
C    -3.4290380   -0.6499391   -1.4664190 
C    -4.6277237   -0.8992479   -2.1558868 
C    -5.4320077    0.2390363   -2.8141504 
C    -5.0506110    1.6201884   -2.2353859 
C    -6.9519884    0.0327164   -2.6102556 
C    -5.1072679    0.2290042   -4.3317077 
C    -5.0301085   -2.2429162   -2.2903666 
C    -4.2908606   -3.3250640   -1.7696940 
C    -3.0836396   -3.0386834   -1.1091370 
C    -4.8024542   -4.7678881   -1.9519971 
C    -6.1988278   -4.9069532   -1.2938479 
C    -3.8562654   -5.8033691   -1.3066615 
C    -4.9089492   -5.0783070   -3.4675236 
C     0.0842148   -1.1712344   -1.7276813 
C    -0.4786800   -1.0496895   -3.0129527 
C     0.3393886   -0.9431655   -4.1437825 
C     1.7292096   -0.9905480   -4.0077565 
C     1.4963017   -1.1967844   -1.5691899 
C     2.2953850   -1.1493104   -2.7345761 
C     2.1810075   -1.3258777   -0.2474372 
C     2.9717794   -2.4755304   -0.0169951 
O     3.0856932   -3.4275883   -1.0127560 
C     4.3413655   -3.3993268   -1.7248991 
C     4.2215725   -2.5198166   -2.9675461 
O     3.6700706   -1.2334008   -2.6148137 
C     3.6210417   -2.6893706    1.2073914 
C     3.5462507   -1.7147587    2.2054881 
C     2.8207526   -0.5385050    1.9823569 
C     2.1301064   -0.3349420    0.7717355 
C     1.6283613    1.8374340   -1.1052948 
C     0.6387804    2.2775273   -1.9972633 
C     0.9945061    2.7480218   -3.2746238 
C    -0.0575543    3.2510139   -4.2823269 
C    -1.4844101    2.8211603   -3.8746679 
C     0.0142890    4.7998138   -4.3224877 
C     0.2291461    2.6843275   -5.6945978 
C     2.3641724    2.7752253   -3.5994968 
C     3.3791402    2.3311974   -2.7257185 
C     2.9887321    1.8522666   -1.4659157 
C     4.8521551    2.3640078   -3.1749078 
C     5.2614546    3.8305741   -3.4644183 
C     5.0087782    1.5086673   -4.4588094 
C     5.7931264    1.7890263   -2.0952710 
C     1.7759323    2.3821716    1.7786470 
C     2.5736341    3.4846646    1.4276661 
C     3.0349746    4.3740280    2.4141617 
C     3.9606071    5.5565400    2.0657666 
C     3.9939376    5.8301041    0.5456806 
C     3.4924949    6.8473185    2.7824784 
C     5.3931201    5.1976604    2.5426074 
C     2.6660545    4.1283050    3.7546156 
C     1.8524985    3.0441486    4.1354689 
C     1.4080183    2.1775615    3.1194492 
C     1.4510196    2.7651349    5.5971729 
C     2.1367265    1.4504193    6.0523916 
C    -0.0881694    2.6041313    5.6919233 
C     1.8807584    3.9030170    6.5462455 
H     0.2044967   -1.9997071    5.9921860 
H     0.7980757   -1.3752496    4.4281524 
H    -0.9494493   -1.6832738    4.6764099 
H    -0.7738178   -4.3517724    6.1606345 
H    -1.8333399   -4.0787191    4.7430260 
H    -0.7029933   -5.4613801    4.7611740 
H     1.7525791   -3.8877262    5.9828420 
H     2.4591343   -3.3765745    4.4188097 
H     1.8502539   -5.0415420    4.6309741 
H    -0.5629116   -1.5942271    2.5445775 
H     0.8555270   -5.6626185    2.8252570 
H     2.4756744   -6.6783187    1.6488078 
H     2.6784503   -7.5359648    0.0989065 
H     2.9916187   -5.7727119    0.1927533 
H     0.2558127   -8.4068594    0.2362596 
H    -1.0991836   -7.2520470    0.4228903 
H     0.0164963   -7.5541408    1.7852440 
H     1.4120387   -5.4430638   -1.7739142 
H     1.1141820   -7.2054021   -1.7921064 
H    -0.2632820   -6.0811564   -1.7066143 
H    -0.0730308   -3.9472221   -1.0235030 
H    -3.0713256    0.3751544   -1.3222249 
H    -5.6823507    2.4025505   -2.6895915 
H    -4.0002680    1.8834645   -2.4481201 
H    -5.2046988    1.6489759   -1.1425261 
H    -7.3138058   -0.8930038   -3.0886340 
H    -7.5102333    0.8728347   -3.0590023 
H    -7.2005344   -0.0164731   -1.5367573 
H    -5.6656097    1.0278412   -4.8524406 
H    -5.3807712   -0.7376814   -4.7893106 
H    -4.0280616    0.3942329   -4.5011684 
H    -5.9603731   -2.4580348   -2.8248901 
H    -2.4769571   -3.8443665   -0.6930371 
H    -6.5896757   -5.9294404   -1.4409375 
H    -6.1391989   -4.7121051   -0.2096022 
H    -6.9281565   -4.2008839   -1.7268605 
H    -3.7472279   -5.6377699   -0.2198680 
H    -4.2633973   -6.8187707   -1.4512000 
H    -2.8505122   -5.7799246   -1.7624529 
H    -5.6138084   -4.3974441   -3.9752155 
H    -5.2688220   -6.1112281   -3.6214966 
H    -3.9246374   -4.9777770   -3.9577227 
H    -1.5649643   -1.0489472   -3.1334592 
H    -0.1131375   -0.8381337   -5.1348821 
H     2.3905130   -0.9159128   -4.8759408 
H     4.5768487   -4.4389512   -2.0110711 
H     5.1361296   -3.0233625   -1.0553958 
H     3.5783064   -3.0012971   -3.7262853 
H     5.2177236   -2.3381196   -3.4067427 
H     4.1868509   -3.6140259    1.3533683 
H     4.0679968   -1.8597748    3.1567829 
H     2.8094275    0.2337918    2.7548744 
H    -0.4075687    2.2303610   -1.6832558 
H    -1.5591207    1.7236595   -3.7745945 
H    -2.2082205    3.1446099   -4.6426563 
H    -1.7913076    3.2771081   -2.9187302 
H    -0.7373349    5.2045346   -5.0244092 
H     1.0109162    5.1406003   -4.6532399 
H    -0.1749641    5.2244622   -3.3216178 
H     0.2318326    1.5809639   -5.6817795 
H    -0.5488480    3.0219888   -6.4018186 
H     1.2013602    3.0240337   -6.0897617 
H     2.6576856    3.1480444   -4.5859088 
H     3.7292199    1.4630969   -0.7632985 
H     6.3158914    3.8761546   -3.7904471 
H     4.6424171    4.2775582   -4.2615749 
H     5.1520816    4.4541648   -2.5594220 
H     4.3885133    1.8941819   -5.2864993 
H     6.0607513    1.5170314   -4.7960086 
H     4.7104365    0.4660518   -4.2561202 
H     5.7507989    2.3762524   -1.1601330 
H     6.8352629    1.8181040   -2.4577765 
H     5.5400302    0.7396405   -1.8642206 
H     2.8218210    3.6485823    0.3781670 
H     2.9835609    6.0336895    0.1485120 
H     4.6258575    6.7113319    0.3413524 
H     4.4209562    4.9820068   -0.0180465 
H     2.4608478    7.1113661    2.4924276 
H     4.1516799    7.6896469    2.5091586 
H     3.5230758    6.7493627    3.8809043 
H     5.7554367    4.2841079    2.0390248 
H     6.0926392    6.0214339    2.3130721 
H     5.4184082    5.0196369    3.6319757 
H     3.0258836    4.8126924    4.5258281 
H     0.7610860    1.3282907    3.3703293 
H     3.2354274    1.5419488    5.9945951 
H     1.8309458    0.5975353    5.4215395 
H     1.8632477    1.2144522    7.0963253 
H    -0.4496028    1.7416135    5.1037691 
H    -0.3899999    2.4347994    6.7403935 
H    -0.6036124    3.5104674    5.3276926 
H     1.4280703    4.8674226    6.2556765 
H     1.5530159    3.6728554    7.5745215 
H     2.9776634    4.0254842    6.5690775 
