197
Energy =
C    -0.5846777   -3.1262397    1.7698350 
C    -0.5856324   -3.6848371    0.4550989 
C     0.5644809   -3.6351432   -0.3640185 
H    -1.5370347   -3.9926169    0.0020189 
Pd   -0.0590790   -1.5471432    0.2954727 
P     0.3541473   -0.2728766   -1.6056106 
P    -0.0920306    0.3242919    1.6894919 
H     0.3510821   -3.1746700    2.3420875 
H     1.5327206   -3.4506972    0.1298254 
C    -4.1286610   -2.6822469    4.1762727 
C    -4.2363431   -2.7239788    2.7754444 
C    -3.0919613   -2.8631380    1.9851942 
C    -1.8101305   -2.9683454    2.5762894 
C    -1.7158835   -2.9141478    3.9841784 
C    -2.8640753   -2.7792860    4.7743399 
H    -5.0256415   -2.5744696    4.7947186 
H    -5.2189449   -2.6471623    2.2982046 
H    -3.1915377   -2.8763701    0.8938505 
H    -0.7310680   -2.9783681    4.4591170 
H    -2.7684839   -2.7522984    5.8644137 
C     0.8613886   -5.1402905   -4.3791188 
C     1.7862343   -4.1998364   -3.8989789 
C     1.6888601   -3.7248724   -2.5879831 
C     0.6504035   -4.1642048   -1.7353224 
C    -0.2667860   -5.1200157   -2.2269631 
C    -0.1572585   -5.6063702   -3.5342984 
H     0.9396192   -5.5166479   -5.4039979 
H     2.5847247   -3.8309599   -4.5510668 
H     2.4050276   -2.9799071   -2.2244495 
H    -1.0490255   -5.5142216   -1.5705202 
H    -0.8626804   -6.3633008   -3.8920649 
C    -4.2110772    5.3493512    3.1840960 
C    -2.8365913    4.6516735    3.2509315 
C    -2.5135652    4.3493530    4.7375585 
C    -1.7704119    5.6187055    2.6779273 
C    -2.8174625    3.3257705    2.4628992 
C    -1.6291160    2.5715922    2.3947560 
C    -3.9537362    2.8088696    1.8133211 
C    -3.9545070    1.5824943    1.1126400 
C    -5.2449728    1.0776543    0.4387827 
C    -4.9743861   -0.1418298   -0.4692667 
C    -5.8699366    2.1974405   -0.4296645 
C    -6.2451173    0.6647522    1.5501361 
C    -2.7632528    0.8417662    1.0933206 
C    -1.6106567    1.3342164    1.7309646 
C     0.2718070   -0.1676475    3.4197484 
C    -0.5226228    0.2361789    4.5047630 
C    -0.2281746   -0.2024205    5.8098411 
C    -1.0596995    0.2874982    7.0123650 
C    -0.3720407    1.5623111    7.5705855 
C    -2.5065276    0.6392542    6.5928819 
C    -1.1251753   -0.7831371    8.1270449 
C     0.8827899   -1.0527358    5.9887122 
C     1.6895930   -1.4882174    4.9184563 
C     1.3562990   -1.0388186    3.6287553 
C     2.9103154   -2.4107929    5.1055853 
C     2.7992371   -3.6249853    4.1476285 
C     3.0241556   -2.9402823    6.5501755 
C     4.1912699   -1.6034856    4.7682755 
C     1.2629955    1.5035828    1.2300037 
C     2.4458874    1.5451810    1.9939232 
C     3.5026767    2.3904742    1.6357266 
C     3.3805016    3.2291455    0.5255137 
C     1.1262272    2.3445813    0.0904283 
C     2.1893340    3.2265005   -0.2143085 
C    -0.1006687    2.4048804   -0.7610578 
C    -0.8165282    3.6235817   -0.8081678 
O    -0.3502599    4.7051972   -0.0900999 
C     0.3002680    5.7177959   -0.8840293 
C     1.8059835    5.4625320   -0.9228423 
O     2.0637754    4.0893467   -1.2867404 
C    -2.0007139    3.7527445   -1.5487792 
C    -2.4557300    2.6777646   -2.3165036 
C    -1.7303580    1.4810264   -2.3423544 
C    -0.5611444    1.3325035   -1.5709961 
C     2.0966478    0.1824035   -1.8919493 
C     2.4525090    1.1801785   -2.8166697 
C     3.8039620    1.5047820   -3.0213560 
C     4.2446691    2.5937873   -4.0179375 
C     3.0370401    3.2761102   -4.6948909 
C     5.1304298    1.9471860   -5.1132230 
C     5.0486409    3.6798974   -3.2575810 
C     4.7692914    0.8041152   -2.2676217 
C     4.4405700   -0.1782098   -1.3126353 
C     3.0794508   -0.4779584   -1.1372134 
C     5.5436643   -0.8908055   -0.5069923 
C     4.9512442   -1.8257787    0.5701004 
C     6.4343422    0.1601603    0.2019312 
C     6.4058340   -1.7351385   -1.4801766 
C    -0.2789264   -1.0837089   -3.1199833 
C    -1.4808366   -1.8022579   -2.9914216 
C    -2.1175542   -2.3458518   -4.1200126 
C    -3.4979405   -3.0240928   -4.0181326 
C    -3.8118686   -3.4700214   -2.5720340 
C    -3.5742393   -4.2677139   -4.9356009 
C    -4.5646735   -1.9878247   -4.4621630 
C    -1.4812425   -2.1781580   -5.3658530 
C    -0.2548264   -1.4992952   -5.5204581 
C     0.3377841   -0.9439944   -4.3733975 
C     0.3810450   -1.3650715   -6.9183605 
C     0.6186178   -2.7748185   -7.5172013 
C    -0.5829833   -0.5674912   -7.8343983 
C     1.7348507   -0.6244225   -6.8695041 
H    -4.1765142    6.2909488    3.7587743 
H    -4.4895765    5.6016551    2.1455900 
H    -5.0114674    4.7246011    3.6184317 
H    -2.5070591    5.2842378    5.3258708 
H    -3.2704111    3.6741417    5.1734552 
H    -1.5239928    3.8728750    4.8505384 
H    -1.7699455    6.5610698    3.2544892 
H    -1.9792036    5.8490154    1.6201971 
H    -0.7560723    5.1881952    2.7235714 
H    -0.7099624    2.9471728    2.8566840 
H    -4.8832996    3.3813410    1.8487390 
H    -5.9056620   -0.4464363   -0.9772587 
H    -4.2236932    0.0923247   -1.2448492 
H    -4.6149702   -1.0092926    0.1098655 
H    -6.7833928    1.8259858   -0.9268712 
H    -5.1616145    2.5306538   -1.2070421 
H    -6.1555888    3.0771466    0.1715882 
H    -5.8120169   -0.1231107    2.1904695 
H    -7.1807460    0.2811437    1.1046482 
H    -6.5011189    1.5234088    2.1950915 
H    -2.7020571   -0.1196053    0.5761617 
H    -1.3819876    0.8844632    4.3251859 
H     0.6604304    1.3442028    7.8956407 
H    -0.9330151    1.9551062    8.4377146 
H    -0.3280321    2.3523112    6.8002283 
H    -3.0035106   -0.2159200    6.1036847 
H    -2.5401642    1.4956473    5.8993983 
H    -3.0936921    0.9192698    7.4844527 
H    -1.7782703   -0.4311208    8.9440839 
H    -1.5356794   -1.7346999    7.7456306 
H    -0.1356124   -0.9891316    8.5694318 
H     1.1215518   -1.3925934    6.9975983 
H     1.9449614   -1.3722236    2.7656512 
H     1.8724244   -4.1948203    4.3377379 
H     3.6563558   -4.3056423    4.2936098 
H     2.8036599   -3.3161532    3.0869094 
H     3.1673677   -2.1216164    7.2768043 
H     2.1279125   -3.5144218    6.8443923 
H     3.8964619   -3.6111813    6.6325390 
H     4.1707112   -1.2315156    3.7288496 
H     4.2937668   -0.7338529    5.4405448 
H     5.0884779   -2.2377814    4.8830522 
H     2.5409980    0.9259883    2.8887328 
H     4.4171326    2.4029332    2.2373071 
H     4.1899488    3.9011145    0.2258418 
H    -0.1224161    5.7163698   -1.9052852 
H     0.0881905    6.6918658   -0.4102059 
H     2.2637715    5.6753579    0.0602137 
H     2.2867500    6.0976590   -1.6867162 
H    -2.5408931    4.7037163   -1.5199308 
H    -3.3681145    2.7742747   -2.9134294 
H    -2.0707931    0.6598342   -2.9781291 
H     1.6647349    1.7202620   -3.3464773 
H     2.3777081    3.7507792   -3.9478462 
H     2.4408970    2.5589915   -5.2870175 
H     3.3939044    4.0593442   -5.3858078 
H     6.0329065    1.4777063   -4.6845768 
H     4.5688189    1.1696177   -5.6610631 
H     5.4602406    2.7117238   -5.8391295 
H     4.4179422    4.1380405   -2.4767510 
H     5.3755586    4.4705814   -3.9562745 
H     5.9508922    3.2632967   -2.7772111 
H     5.8256749    1.0493313   -2.4202764 
H     2.7564476   -1.2111400   -0.3931747 
H     5.7657480   -2.2936346    1.1490578 
H     4.3114805   -1.2687263    1.2779761 
H     4.3518587   -2.6403676    0.1249780 
H     6.9269593    0.8344449   -0.5192276 
H     7.2265277   -0.3422913    0.7848442 
H     5.8327534    0.7776127    0.8904097 
H     7.2079815   -2.2578476   -0.9291349 
H     5.7878568   -2.4926108   -1.9940708 
H     6.8794786   -1.1025756   -2.2508138 
H    -1.9220366   -1.9126387   -1.9950697 
H    -3.0348119   -4.1547430   -2.1900139 
H    -4.7785019   -4.0015579   -2.5468742 
H    -3.8928708   -2.6126840   -1.8817258 
H    -2.7833217   -4.9930642   -4.6805135 
H    -4.5533990   -4.7635917   -4.8174551 
H    -3.4679039   -4.0049056   -6.0016425 
H    -4.5415526   -1.0981948   -3.8074288 
H    -5.5769134   -2.4281568   -4.4114860 
H    -4.3848463   -1.6539596   -5.4989518 
H    -1.9611996   -2.5939134   -6.2569052 
H     1.2847885   -0.4071259   -4.4454309 
H     1.0525933   -2.6903766   -8.5292770 
H    -0.3198250   -3.3495176   -7.5998549 
H     1.3171706   -3.3530392   -6.8887958 
H    -0.7695871    0.4400195   -7.4228786 
H    -0.1467389   -0.4548672   -8.8429233 
H    -1.5560167   -1.0769456   -7.9431048 
H     2.1616945   -0.5642036   -7.8852675 
H     2.4659229   -1.1491449   -6.2286888 
H     1.6247192    0.4081575   -6.4934707 
