206
Energy =
C    -0.8441424   -3.6164504    0.8506587 
C    -2.1662213   -3.1988689    0.5726256 
C    -2.5177924   -2.7628053   -0.7448904 
H    -2.8709913   -3.0503265    1.4001159 
Pd   -0.8946551   -1.4849765    0.0523508 
P    -0.7185826    0.1190696   -1.6344603 
P     0.6262272   -0.4488955    1.4687253 
H    -0.2306804   -3.9069888   -0.0173216 
H    -2.0075571   -3.2462459   -1.5883828 
C     0.8706964   -4.9035989    4.5703615 
C    -0.4730945   -4.4990461    4.5355903 
C    -1.0508105   -4.0718387    3.3367506 
C    -0.2927682   -4.0384492    2.1442204 
C     1.0645327   -4.4350778    2.1996165 
C     1.6420325   -4.8616298    3.3987387 
H     1.3119027   -5.2559029    5.5081535 
H    -1.0750695   -4.5205312    5.4493224 
H    -2.1023591   -3.7726461    3.3269955 
H     1.6690965   -4.4030007    1.2874656 
H     2.6937414   -5.1656461    3.4187707 
C    -6.2681432   -0.9068626   -1.7602755 
C    -5.5256158   -1.5992975   -2.7277915 
C    -4.3026007   -2.1928219   -2.3913846 
C    -3.8047310   -2.1212999   -1.0717262 
C    -4.5606146   -1.4137134   -0.1062442 
C    -5.7769132   -0.8148556   -0.4466026 
H    -7.2225760   -0.4405880   -2.0255855 
H    -5.9017685   -1.6810807   -3.7524344 
H    -3.7216016   -2.7196313   -3.1562736 
H    -4.1816644   -1.3163307    0.9167819 
H    -6.3463743   -0.2714206    0.3148631 
C    -3.4529241   -2.1966568    6.1558072 
C    -3.1282228   -1.0058643    5.2197263 
C    -4.0411284   -1.1132036    3.9800977 
C    -3.4376752    0.3283449    5.9481391 
C    -1.6339615   -1.0112816    4.8399402 
C    -1.1956969   -0.8383180    3.5189926 
C    -0.6496070   -1.1548178    5.8437362 
C     0.7281658   -1.1556997    5.5677976 
C     1.7992412   -1.2353223    6.6740906 
C     2.4427707    0.1707671    6.8108153 
C     1.1996498   -1.6432337    8.0362429 
C     2.8968246   -2.2610048    6.2993915 
C     1.1303572   -0.9956782    4.2251579 
C     0.1825731   -0.8133367    3.2121573 
C     2.3785341   -0.8836661    1.2054141 
C     2.6571295   -1.8868419    0.2621393 
C     3.9745532   -2.3121995    0.0331644 
C     4.3129765   -3.4062072   -0.9974764 
C     5.4165346   -2.8951608   -1.9577481 
C     3.0807286   -3.7923009   -1.8450808 
C     4.8180934   -4.6637677   -0.2446587 
C     4.9913874   -1.7141741    0.8048320 
C     4.7485554   -0.6886931    1.7420436 
C     3.4201464   -0.2590942    1.9139035 
C     5.9079128   -0.1173448    2.5829029 
C     7.1041496    0.2636208    1.6762206 
C     5.4779527    1.1358646    3.3753953 
C     6.3573099   -1.2114542    3.5873844 
C     0.5307965    1.3888012    1.3694080 
C    -0.0812394    2.1307494    2.3996047 
C    -0.1862662    3.5206817    2.2855352 
C     0.3271722    4.1875477    1.1684295 
C     1.0337946    2.0391531    0.2179404 
C     0.9483246    3.4541604    0.1413593 
C     1.7305874    1.3333533   -0.9016430 
C     3.1261501    1.5590918   -1.0354612 
O     3.6920117    2.3255661   -0.0596519 
C     4.9642411    2.9477832   -0.3179410 
C     4.8596171    4.1074847   -1.3207352 
C     4.5076278    5.4714568   -0.7001283 
C     3.1447917    5.5947824    0.0058257 
C     1.9201087    5.3969078   -0.9040891 
O     1.4909176    4.0228288   -0.9738125 
C     3.8435381    0.9970883   -2.1066615 
C     3.1699933    0.2248653   -3.0581507 
C     1.7950584   -0.0076991   -2.9500835 
C     1.0701514    0.5358152   -1.8699733 
C    -1.5923071    1.7109811   -1.4681838 
C    -1.3950558    2.7298933   -2.4138137 
C    -2.1526436    3.9167566   -2.3509733 
C    -1.9838431    4.9901742   -3.4463765 
C    -2.9621675    6.1695283   -3.2654687 
C    -2.2499114    4.3499814   -4.8329307 
C    -0.5383379    5.5425878   -3.4022781 
C    -3.0535020    4.0563375   -1.2798750 
C    -3.2370866    3.0666411   -0.2885542 
C    -2.5054095    1.8759125   -0.4109562 
C    -4.2445723    3.3029740    0.8524418 
C    -4.1752761    2.1845687    1.9130243 
C    -3.9424364    4.6529897    1.5497090 
C    -5.6744000    3.3322334    0.2524751 
C    -1.2727905   -0.6250980   -3.2198905 
C    -0.7694813   -1.8995530   -3.5398143 
C    -1.1802166   -2.5740105   -4.7025951 
C    -0.5732297   -3.9523316   -5.0316572 
C    -0.7207431   -4.8932230   -3.8082183 
C    -1.2611023   -4.6181619   -6.2414845 
C     0.9312701   -3.7606727   -5.3565863 
C    -2.1311957   -1.9366367   -5.5238720 
C    -2.6791054   -0.6738925   -5.2171001 
C    -2.2343145   -0.0244574   -4.0495632 
C    -3.6919593    0.0004370   -6.1643565 
C    -2.8871337    0.7471776   -7.2615579 
C    -4.5808036    1.0180101   -5.4125301 
C    -4.6156782   -1.0442867   -6.8351073 
H    -3.2295855   -3.1588743    5.6623010 
H    -2.8812068   -2.1548158    7.0980680 
H    -4.5251783   -2.1888063    6.4187775 
H    -3.8450150   -2.0414729    3.4140649 
H    -3.9147452   -0.2568790    3.2980094 
H    -5.0986630   -1.1317587    4.2941529 
H    -4.5007138    0.3685846    6.2466938 
H    -2.8217253    0.4389881    6.8573361 
H    -3.2300683    1.1891798    5.2879643 
H    -1.9156100   -0.7133721    2.7026332 
H    -0.9792752   -1.2712759    6.8786691 
H     3.2159845    0.1650991    7.5999642 
H     1.6829847    0.9272770    7.0738384 
H     2.9204801    0.4834849    5.8654213 
H     0.4786891   -0.8959998    8.4112971 
H     2.0044375   -1.7274399    8.7866472 
H     0.6887965   -2.6207420    7.9756688 
H     2.4717404   -3.2721617    6.1939371 
H     3.3979633   -2.0061160    5.3500763 
H     3.6699969   -2.2886670    7.0871711 
H     2.1930352   -1.0003038    3.9727230 
H     1.8216832   -2.3101011   -0.3019911 
H     5.6545367   -3.6674580   -2.7104705 
H     6.3496639   -2.6550028   -1.4202594 
H     5.0811877   -1.9853424   -2.4843859 
H     3.3667475   -4.5392109   -2.6052440 
H     2.2792492   -4.2412263   -1.2307890 
H     2.6650465   -2.9135172   -2.3687796 
H     4.0435026   -5.0480390    0.4427762 
H     5.7195040   -4.4403320    0.3519553 
H     5.0731431   -5.4657997   -0.9601898 
H     6.0215480   -2.0576930    0.6651021 
H     3.1840482    0.5660101    2.5891502 
H     7.9267436    0.6743813    2.2877332 
H     6.8109886    1.0273723    0.9365967 
H     7.5032883   -0.6065679    1.1279621 
H     5.0864624    1.9220214    2.7065227 
H     4.6996354    0.9022036    4.1229466 
H     6.3439030    1.5479306    3.9213385 
H     7.1876077   -0.8408790    4.2149277 
H     5.5235270   -1.4987585    4.2515919 
H     6.7030775   -2.1194589    3.0631718 
H    -0.4583138    1.6272055    3.2930769 
H    -0.6594482    4.0969222    3.0873174 
H     0.2495246    5.2751899    1.1047669 
H     5.6906885    2.1867580   -0.6554605 
H     5.2997255    3.3010005    0.6707251 
H     5.8348319    4.2051580   -1.8325198 
H     4.1295981    3.8282430   -2.1036464 
H     5.2986284    5.7396158    0.0265753 
H     4.5601904    6.2378345   -1.4972882 
H     3.0717916    4.8869319    0.8525750 
H     3.0816490    6.6062209    0.4475790 
H     1.0770120    6.0362391   -0.5852385 
H     2.1483963    5.6610955   -1.9489458 
H     4.9176882    1.1651432   -2.2093497 
H     3.7250598   -0.1947936   -3.9036236 
H     1.2861180   -0.5930639   -3.7190452 
H    -0.6554645    2.5862833   -3.2086364 
H    -2.8131903    6.9024236   -4.0771767 
H    -4.0144562    5.8369063   -3.3036055 
H    -2.7975063    6.6959158   -2.3087380 
H    -2.1176070    5.1013960   -5.6314806 
H    -3.2825286    3.9654351   -4.8932978 
H    -1.5603084    3.5137024   -5.0409208 
H    -0.3755630    6.2564209   -4.2296132 
H     0.2111369    4.7374669   -3.4849491 
H    -0.3632605    6.0733410   -2.4518888 
H    -3.6446671    4.9723236   -1.2072337 
H    -2.6217287    1.0611574    0.3086183 
H    -3.1630485    2.1018652    2.3474704 
H    -4.8818936    2.3992278    2.7334825 
H    -4.4507709    1.2063660    1.4845826 
H    -2.9172456    4.6587079    1.9580114 
H    -4.6504818    4.8182009    2.3811564 
H    -4.0391341    5.5060273    0.8565949 
H    -6.4235110    3.4907200    1.0492415 
H    -5.9014614    2.3798006   -0.2577465 
H    -5.7847630    4.1469363   -0.4842383 
H    -0.0493766   -2.3726337   -2.8612860 
H    -1.7827239   -5.0178152   -3.5315519 
H    -0.1765187   -4.5112192   -2.9260409 
H    -0.3077907   -5.8902737   -4.0417131 
H    -1.1361403   -4.0228205   -7.1626521 
H    -0.8120475   -5.6093149   -6.4255078 
H    -2.3413952   -4.7646609   -6.0651439 
H     1.0608844   -3.0969869   -6.2291893 
H     1.4031092   -4.7326689   -5.5872443 
H     1.4730160   -3.3144075   -4.5046472 
H    -2.4657894   -2.4433606   -6.4304356 
H    -2.6459429    0.9474397   -3.7723290 
H    -3.5722419    1.2474432   -7.9696445 
H    -2.2325151    1.5146333   -6.8124348 
H    -2.2515562    0.0465925   -7.8311572 
H    -3.9959831    1.8645196   -5.0173641 
H    -5.1090202    0.5452529   -4.5671753 
H    -5.3336987    1.4354477   -6.1032693 
H    -4.0620315   -1.7279218   -7.5009607 
H    -5.1446266   -1.6537794   -6.0814360 
H    -5.3718894   -0.5310473   -7.4539694 
