206
Energy =
C     0.5613579    1.2852907   -3.5631042 
C    -0.6874670    0.6336900   -3.8180999 
C    -1.8688424    1.0864041   -3.1863279 
H    -0.7032293   -0.3197028   -4.3603790 
Pd   -0.2778626    0.5160353   -1.6592719 
P    -1.5372081   -0.6490809   -0.1013336 
P     1.4732350    0.9679157   -0.1829345 
H     0.5373419    2.3659909   -3.3676644 
H    -1.8503736    2.1137186   -2.7880834 
C     4.4292100   -0.2221640   -4.7126279 
C     4.2602743    1.1225971   -4.3521674 
C     2.9959270    1.6078599   -3.9963092 
C     1.8702251    0.7527952   -3.9849595 
C     2.0559147   -0.6031690   -4.3473788 
C     3.3172479   -1.0811109   -4.7141401 
H     5.4177550   -0.5995714   -4.9936474 
H     5.1190626    1.8013077   -4.3523885 
H     2.8740314    2.6600574   -3.7162128 
H     1.2081159   -1.2958589   -4.3289831 
H     3.4367422   -2.1319568   -4.9982028 
C    -5.8524197   -0.5078126   -3.3842256 
C    -5.5602240    0.6083459   -2.5862414 
C    -4.2559202    1.1073746   -2.5374059 
C    -3.2142198    0.5046122   -3.2807391 
C    -3.5230119   -0.6249191   -4.0722858 
C    -4.8282151   -1.1240951   -4.1207061 
H    -6.8749232   -0.8952358   -3.4348430 
H    -6.3504449    1.0927538   -2.0031894 
H    -4.0315741    1.9750056   -1.9117756 
H    -2.7424751   -1.1127403   -4.6628059 
H    -5.0497820   -2.0004089   -4.7376949 
C    -4.8810215    4.6659873    2.0498519 
C    -3.7393332    4.0143161    1.2414592 
C    -4.0076576    4.2663088   -0.2631379 
C    -2.4025175    4.6908493    1.6367858 
C    -3.6217257    2.5003794    1.5177893 
C    -2.7584714    1.7051791    0.7371137 
C    -4.3254546    1.8615659    2.5538998 
C    -4.1791025    0.4885612    2.8581885 
C    -5.0076800   -0.1365564    3.9976066 
C    -6.5059836   -0.0959954    3.5977722 
C    -4.6031300   -1.6025975    4.2614351 
C    -4.8069595    0.6699548    5.3050166 
C    -3.2961013   -0.2672832    2.0726422 
C    -2.6108813    0.3348736    0.9986926 
C    -2.5704890   -1.8843628   -0.9810960 
C    -1.9437207   -2.5847752   -2.0328746 
C    -2.6019691   -3.6372891   -2.6889482 
C    -1.9224047   -4.4604450   -3.8016765 
C    -1.4689500   -5.8118237   -3.1895761 
C    -0.6863078   -3.7374572   -4.3792993 
C    -2.9072214   -4.7227414   -4.9674775 
C    -3.9081326   -3.9531963   -2.2625011 
C    -4.5806502   -3.2382050   -1.2535419 
C    -3.8895625   -2.1880990   -0.6179468 
C    -5.9960200   -3.6518743   -0.8043467 
C    -6.7131952   -2.5039348   -0.0586457 
C    -6.8676196   -4.0648493   -2.0149524 
C    -5.8510338   -4.8618490    0.1566774 
C    -0.4678347   -1.6889715    0.9895344 
C    -0.3871924   -3.0826211    0.7887486 
C     0.4887712   -3.8501583    1.5624091 
C     1.2851165   -3.2552606    2.5459635 
C     0.3306830   -1.0662014    1.9779439 
C     1.2005723   -1.8687183    2.7635647 
C     0.2738226    0.3893246    2.3108423 
C    -0.2654365    0.7418517    3.5755387 
O    -0.7777343   -0.2903019    4.3062694 
C    -0.9332363   -0.1198356    5.7278502 
C     0.4107457   -0.0627465    6.4728511 
C     0.9834732   -1.4259097    6.9011337 
C     1.3509112   -2.4207261    5.7853025 
C     2.4527193   -1.9459031    4.8224255 
O     1.9306165   -1.2031672    3.7045960 
C    -0.2530654    2.0796310    4.0098797 
C     0.3104126    3.0652343    3.1941160 
C     0.8452857    2.7417344    1.9429678 
C     0.8252739    1.4061259    1.4940370 
C     2.3254875    2.4891781   -0.7535643 
C     1.4922428    3.5445722   -1.1768710 
C     2.0328572    4.7359905   -1.6813471 
C     1.1482924    5.8889776   -2.1925561 
C    -0.3559715    5.5831239   -2.0250297 
C     1.4392402    6.1063956   -3.7002046 
C     1.4755816    7.1812232   -1.4024388 
C     3.4398987    4.8367265   -1.7380639 
C     4.3008273    3.8011872   -1.3284204 
C     3.7197452    2.6127245   -0.8397710 
C     5.8285679    3.9972281   -1.3949497 
C     6.2457733    4.4865264   -2.8045830 
C     6.2280137    5.0642156   -0.3418664 
C     6.5893499    2.6899849   -1.0872378 
C     2.7406072   -0.3091646    0.1120629 
C     2.7205472   -1.4822143   -0.6600372 
C     3.6863767   -2.4824159   -0.4510829 
C     3.7041096   -3.7972161   -1.2539921 
C     3.8061747   -5.0048259   -0.2888936 
C     2.4235667   -3.9633288   -2.0982459 
C     4.9322591   -3.7812157   -2.2006947 
C     4.6799794   -2.2375943    0.5170808 
C     4.7245064   -1.0708136    1.3065476 
C     3.7169244   -0.1122824    1.1062743 
C     5.8747273   -0.8593347    2.3107020 
C     5.6291075    0.3718244    3.2085395 
C     7.1855940   -0.6437563    1.5092839 
C     6.0361787   -2.1028238    3.2195317 
H    -5.8576160    4.2050138    1.8188397 
H    -4.7090691    4.5905975    3.1377260 
H    -4.9465972    5.7391318    1.8007638 
H    -4.9391081    3.7714637   -0.5891655 
H    -3.1793555    3.9020659   -0.8958814 
H    -4.1101015    5.3490297   -0.4534622 
H    -2.4397838    5.7736231    1.4191655 
H    -2.2019375    4.5568084    2.7129824 
H    -1.5531477    4.2536212    1.0848853 
H    -2.1741496    2.1478739   -0.0775412 
H    -5.0144997    2.4518487    3.1626335 
H    -7.1279182   -0.5420403    4.3944912 
H    -6.6790503   -0.6617385    2.6659359 
H    -6.8524835    0.9394773    3.4355147 
H    -4.8037494   -2.2471848    3.3870964 
H    -5.1862005   -2.0041500    5.1080002 
H    -3.5309610   -1.6858206    4.5119334 
H    -3.7456232    0.6729196    5.6044430 
H    -5.1338194    1.7183714    5.1980630 
H    -5.3958629    0.2195304    6.1234030 
H    -3.1225121   -1.3247039    2.2842723 
H    -0.9244021   -2.3016325   -2.3175579 
H    -0.9829557   -6.4419321   -3.9562404 
H    -2.3289751   -6.3694832   -2.7798051 
H    -0.7475145   -5.6455564   -2.3697967 
H    -0.2462012   -4.3393550   -5.1925198 
H    -0.9579459   -2.7528420   -4.8006225 
H     0.0986741   -3.5867935   -3.6209559 
H    -3.2730249   -3.7732543   -5.3967684 
H    -3.7822859   -5.3146497   -4.6509582 
H    -2.4005801   -5.2881605   -5.7689263 
H    -4.4268212   -4.7851859   -2.7459794 
H    -4.3735515   -1.6078382    0.1695520 
H    -7.7457755   -2.8058552    0.1869990 
H    -6.7565405   -1.5891588   -0.6749126 
H    -6.2116884   -2.2536041    0.8921612 
H    -6.9338656   -3.2476596   -2.7529963 
H    -6.4732150   -4.9585084   -2.5278626 
H    -7.8894752   -4.3090109   -1.6760661 
H    -6.8434161   -5.1976399    0.5079996 
H    -5.3576854   -5.7111366   -0.3477905 
H    -5.2437585   -4.5902661    1.0384733 
H    -1.0167441   -3.5706713    0.0417086 
H     0.5437937   -4.9323606    1.4050087 
H     1.9601367   -3.8727417    3.1424169 
H    -1.5315478   -0.9911340    6.0407177 
H    -1.5406525    0.7809932    5.9302711 
H     1.1354074    0.4895457    5.8457897 
H     0.2679212    0.5480453    7.3833225 
H     1.8849415   -1.2416383    7.5167475 
H     0.2552933   -1.9168842    7.5752461 
H     1.6944984   -3.3566586    6.2631067 
H     0.4598089   -2.6918715    5.1887785 
H     3.1449859   -1.2430672    5.3141939 
H     3.0575969   -2.7950426    4.4565536 
H    -0.6643129    2.3539979    4.9838043 
H     0.3359462    4.1029683    3.5419475 
H     1.2943829    3.5248729    1.3278942 
H     0.4071800    3.4129692   -1.1144824 
H    -0.9520841    6.4319232   -2.4014583 
H    -0.6594651    4.6880031   -2.5983458 
H    -0.6286718    5.4266555   -0.9667344 
H     0.8126978    6.9241854   -4.0985152 
H     1.2196224    5.1900294   -4.2770173 
H     2.4954309    6.3728291   -3.8766285 
H     0.8533714    8.0186535   -1.7648881 
H     2.5331492    7.4741185   -1.5182500 
H     1.2763783    7.0426257   -0.3251488 
H     3.8809411    5.7607244   -2.1255620 
H     4.3485644    1.7736172   -0.5381844 
H     5.7895051    5.4584731   -3.0584312 
H     7.3416824    4.6124952   -2.8522739 
H     5.9491519    3.7597609   -3.5803768 
H     5.7308156    6.0299718   -0.5391694 
H     7.3197868    5.2321945   -0.3605062 
H     5.9447144    4.7367123    0.6739214 
H     7.6758094    2.8617207   -1.1754635 
H     6.3142017    1.8819176   -1.7880923 
H     6.3934246    2.3369460   -0.0597051 
H     1.9332671   -1.6015126   -1.4091912 
H     2.9568478   -5.0127071    0.4154419 
H     4.7389147   -4.9866641    0.3002663 
H     3.7941083   -5.9493977   -0.8612019 
H     2.3341219   -3.1674215   -2.8558895 
H     2.4461008   -4.9295586   -2.6316639 
H     1.5195459   -3.9442444   -1.4637907 
H     4.8830050   -2.9182233   -2.8867959 
H     4.9677134   -4.7073047   -2.8025723 
H     5.8753686   -3.7093896   -1.6311913 
H     5.4569565   -2.9943639    0.6656128 
H     3.6745679    0.7910965    1.7192954 
H     6.4455001    0.4666671    3.9451801 
H     5.6030506    1.3078743    2.6228307 
H     4.6760038    0.2836839    3.7593543 
H     7.1019603    0.2358667    0.8481253 
H     7.4186182   -1.5197036    0.8790541 
H     8.0348513   -0.4817326    2.1972016 
H     5.1136542   -2.2940830    3.7919681 
H     6.2729068   -3.0114645    2.6403276 
H     6.8604041   -1.9433536    3.9369901 
