200
Energy =
C     3.4622197    0.2574829    1.3683946 
C     3.4050739    1.5794106    0.8232693 
C     2.4820489    2.5272333    1.3202318 
H     3.9508076    1.8068886   -0.1008429 
Pd    1.4236838    0.6442086    0.5840475 
P    -0.4230786    1.5229373   -0.5124154 
P     0.4616685   -1.4663244    0.8302212 
H     3.2454220    0.1388979    2.4385677 
H     2.0563394    2.3311627    2.3176747 
C     5.6372554   -3.0233646   -0.3839355 
C     5.3524949   -1.8834426   -1.1546917 
C     4.6500856   -0.8117028   -0.5962502 
C     4.2263429   -0.8453300    0.7543646 
C     4.5259904   -1.9953014    1.5196227 
C     5.2204502   -3.0717339    0.9541819 
H     6.1823021   -3.8644067   -0.8245816 
H     5.6766387   -1.8330984   -2.1994654 
H     4.4173333    0.0566952   -1.2223672 
H     4.2034310   -2.0439305    2.5653956 
H     5.4403036   -3.9524993    1.5656310 
C     1.8059293    6.5493878   -0.0305103 
C     0.9658996    5.9616294    0.9277858 
C     1.2030987    4.6528875    1.3555925 
C     2.2777598    3.8976533    0.8298480 
C     3.1126457    4.5024479   -0.1365018 
C     2.8789647    5.8151332   -0.5577738 
H     1.6319139    7.5784611   -0.3610706 
H     0.1231832    6.5247728    1.3417147 
H     0.5417666    4.1985928    2.0987767 
H     3.9658520    3.9538320   -0.5463133 
H     3.5424395    6.2735414   -1.2975916 
C     1.3058996   -2.9496541   -5.3794268 
C     2.1531474   -2.7533586   -4.0977565 
C     2.6514727   -1.2925929   -4.0739384 
C     3.3763511   -3.7059307   -4.1321975 
C     1.3157483   -3.0854089   -2.8476776 
C     1.2863732   -2.2470423   -1.7187891 
C     0.5628617   -4.2743634   -2.7955906 
C    -0.2368968   -4.6392549   -1.6932555 
C    -1.0465459   -5.9491148   -1.7279429 
C    -0.0634265   -7.1464330   -1.7837062 
C    -1.9455451   -6.0992770   -0.4826571 
C    -1.9516994   -5.9594169   -2.9859496 
C    -0.2641820   -3.7684499   -0.5928419 
C     0.5051170   -2.5904216   -0.6041060 
C     1.2289538   -2.3464014    2.2431982 
C     1.6437050   -3.6835024    2.1679904 
C     2.2533465   -4.3054894    3.2762189 
C     2.6633265   -5.7913838    3.2456236 
C     4.0896539   -5.9751241    3.8206131 
C     2.6412687   -6.3628538    1.8106750 
C     1.6533138   -6.5844385    4.1166344 
C     2.4425414   -3.5366608    4.4399619 
C     2.0569755   -2.1816006    4.5394682 
C     1.4423283   -1.6006324    3.4200695 
C     2.3429923   -1.3864927    5.8277542 
C     3.8740960   -1.3694520    6.0736087 
C     1.8496609    0.0732394    5.7300171 
C     1.6267835   -2.0665453    7.0221039 
C    -1.3320633   -1.3485325    1.2775159 
C    -1.7614519   -1.6190538    2.5917836 
C    -3.1142530   -1.5027907    2.9357417 
C    -4.0570267   -1.1138675    1.9794909 
C    -2.2778091   -0.9685526    0.2907286 
C    -3.6399552   -0.8668994    0.6626606 
C    -1.9508370   -0.7756481   -1.1554197 
C    -2.5012965   -1.7136832   -2.0642585 
O    -3.2317261   -2.7373899   -1.5137563 
C    -4.5080171   -3.0619811   -2.0983989 
C    -5.5097580   -1.9070804   -2.0089000 
C    -5.6647096   -1.3088087   -0.6079806 
O    -4.5243842   -0.4726410   -0.3073418 
C    -2.2676298   -1.6130733   -3.4436643 
C    -1.5087200   -0.5455150   -3.9345472 
C    -0.9773384    0.4103822   -3.0608900 
C    -1.1889249    0.3015450   -1.6711288 
C    -1.7811544    2.1045820    0.5572266 
C    -3.0494424    2.4045486    0.0227501 
C    -4.0754815    2.8655060    0.8593296 
C    -5.4839085    3.1914442    0.3285823 
C    -5.7837052    4.6927739    0.5698756 
C    -6.5188221    2.3182095    1.0838208 
C    -5.6117977    2.8969231   -1.1809560 
C    -3.7906760    3.0164609    2.2363881 
C    -2.5435393    2.6999477    2.8024164 
C    -1.5390747    2.2313692    1.9322451 
C    -2.2584241    2.8056571    4.3147357 
C    -2.1208882    1.3730226    4.8898896 
C    -3.3884474    3.5362831    5.0697524 
C    -0.9363070    3.5779240    4.5529757 
C     0.0715463    2.8946596   -1.6212160 
C     1.2791290    2.7278009   -2.3319318 
C     1.6692263    3.6543686   -3.3093526 
C     2.9277354    3.4410775   -4.1746359 
C     3.7133526    4.7633371   -4.3477947 
C     2.4637949    2.9302562   -5.5648040 
C     3.8825649    2.3949190   -3.5580917 
C     0.8262282    4.7675678   -3.5299372 
C    -0.3643260    4.9786540   -2.8126515 
C    -0.7303435    4.0185082   -1.8466478 
C    -1.3081644    6.1676787   -3.0826282 
C    -2.6245433    5.6134010   -3.6900178 
C    -1.6286578    6.9044192   -1.7576874 
C    -0.6976109    7.1845113   -4.0690878 
H     1.9003037   -2.6796263   -6.2701069 
H     0.4060379   -2.3112710   -5.3545198 
H     0.9798756   -3.9958892   -5.5062749 
H     3.2049835   -1.0684058   -5.0022477 
H     1.8078895   -0.5835724   -3.9987685 
H     3.3348311   -1.1094983   -3.2283338 
H     4.0112173   -3.4891457   -5.0104414 
H     3.0564272   -4.7608654   -4.1934867 
H     3.9865891   -3.5886490   -3.2201211 
H     1.8520015   -1.3117561   -1.6929832 
H     0.5903304   -4.9447648   -3.6605859 
H    -0.6205970   -8.0998712   -1.8152547 
H     0.5813025   -7.1003207   -2.6786013 
H     0.5910126   -7.1571174   -0.8943735 
H    -1.3509204   -6.1562478    0.4466468 
H    -2.6491398   -5.2532050   -0.3941191 
H    -2.5326733   -7.0309707   -0.5569812 
H    -2.5602878   -6.8807545   -3.0122191 
H    -2.6315230   -5.0911080   -2.9746051 
H    -1.3627137   -5.9214073   -3.9183569 
H    -0.8974538   -3.9803395    0.2716391 
H     1.4987711   -4.2340729    1.2373242 
H     4.1571510   -5.6608112    4.8759165 
H     4.8288124   -5.3925634    3.2438766 
H     4.3802195   -7.0392580    3.7751037 
H     1.6248256   -6.3558441    1.3794359 
H     3.3052182   -5.7929535    1.1366339 
H     2.9855945   -7.4111734    1.8235065 
H     1.6577031   -6.2249441    5.1606011 
H     1.9105938   -7.6588329    4.1223910 
H     0.6272920   -6.4753929    3.7230097 
H     2.9172796   -4.0075657    5.3065143 
H     1.1280180   -0.5523638    3.4426582 
H     4.2788159   -2.3884743    6.1976278 
H     4.1090690   -0.7988546    6.9896758 
H     4.4013882   -0.8952040    5.2264970 
H     0.7586715    0.1296194    5.5704234 
H     2.0770212    0.6054314    6.6694907 
H     2.3502789    0.6218615    4.9111498 
H     0.5342031   -2.0877720    6.8628839 
H     1.8299608   -1.5123600    7.9556196 
H     1.9702016   -3.1052744    7.1663748 
H    -1.0408616   -1.9370236    3.3491696 
H    -3.4319458   -1.7129605    3.9620262 
H    -5.1128776   -0.9993122    2.2426332 
H    -4.3904778   -3.3935235   -3.1478533 
H    -4.8509855   -3.9296469   -1.5114293 
H    -5.2185918   -1.0949524   -2.6995848 
H    -6.4920258   -2.2836548   -2.3514232 
H    -6.5560659   -0.6593986   -0.5671929 
H    -5.7700695   -2.0971590    0.1603546 
H    -2.6744863   -2.3658699   -4.1244150 
H    -1.3329032   -0.4523394   -5.0111126 
H    -0.4056244    1.2495113   -3.4645347 
H    -3.2278143    2.2418839   -1.0423864 
H    -6.7939595    4.9460105    0.2017576 
H    -5.7406149    4.9505339    1.6423456 
H    -5.0528602    5.3272662    0.0373267 
H    -6.5254314    2.5317725    2.1664903 
H    -7.5360471    2.5091478    0.6979674 
H    -6.2835855    1.2491458    0.9464484 
H    -5.3978779    1.8367737   -1.4005693 
H    -6.6394257    3.1189542   -1.5169077 
H    -4.9258054    3.5230244   -1.7790000 
H    -4.5877476    3.3797490    2.8896766 
H    -0.5577359    1.9364408    2.3203016 
H    -3.0635989    0.8133518    4.7695171 
H    -1.3299910    0.8059954    4.3691567 
H    -1.8705446    1.4113035    5.9654720 
H    -3.1302141    3.6151341    6.1398483 
H    -4.3464932    2.9920411    5.0016708 
H    -3.5407622    4.5589909    4.6819842 
H    -0.9795890    4.5874234    4.1080720 
H    -0.0671758    3.0481668    4.1249475 
H    -0.7503218    3.6871104    5.6358595 
H     1.8951256    1.8475910   -2.1188006 
H     3.1183769    5.5388317   -4.8586748 
H     4.6167125    4.5874290   -4.9575183 
H     4.0313902    5.1638876   -3.3700115 
H     3.3327422    2.7663398   -6.2274924 
H     1.9180862    1.9748012   -5.4666064 
H     1.7920790    3.6588818   -6.0511784 
H     4.2040194    2.6936498   -2.5446044 
H     4.7862115    2.2996452   -4.1839964 
H     3.4203350    1.3960858   -3.4957999 
H     1.1151472    5.4919079   -4.2944129 
H    -1.6534345    4.1435750   -1.2743608 
H    -3.1240684    4.9134339   -2.9970305 
H    -3.3262409    6.4395568   -3.9037925 
H    -2.4256482    5.0744917   -4.6328448 
H    -2.3263949    7.7387628   -1.9492220 
H    -0.7109515    7.3168570   -1.3067867 
H    -2.1009062    6.2367202   -1.0160134 
H    -1.3945794    8.0280168   -4.2125425 
H    -0.5134845    6.7362022   -5.0611722 
H     0.2551613    7.5947443   -3.6896682 
