200
Energy =
C     0.7933097   -2.9557663    2.1234147 
C     0.7113237   -2.0221440    3.2025466 
C    -0.4888043   -1.3454800    3.5105517 
H     1.6353759   -1.6798854    3.6865261 
Pd    0.1270489   -0.9872005    1.3387278 
P    -0.4441488    1.2470571    0.9913080 
P     0.2314954   -1.4478693   -0.9431075 
H    -0.0935113   -3.5655274    1.9052536 
H    -1.4294006   -1.7670215    3.1197656 
C     4.5054841   -4.5794517    0.6555314 
C     4.5065588   -3.3761004    1.3814720 
C     3.3073705   -2.8416150    1.8601044 
C     2.0752699   -3.5015988    1.6349533 
C     2.0896488   -4.7105811    0.9047028 
C     3.2920620   -5.2417148    0.4216920 
H     5.4447762   -4.9961836    0.2777883 
H     5.4482489   -2.8511012    1.5727241 
H     3.3260785   -1.8912462    2.4050136 
H     1.1466758   -5.2330709    0.7112165 
H     3.2790656   -6.1810390   -0.1395704 
C    -0.9699087    1.5689794    6.6342958 
C    -1.8739426    1.5163859    5.5619795 
C    -1.7178137    0.5581859    4.5565781 
C    -0.6410634   -0.3567187    4.5913200 
C     0.2526388   -0.3042983    5.6846887 
C     0.0854166    0.6464657    6.6977146 
H    -1.0928955    2.3187994    7.4223082 
H    -2.7027072    2.2294217    5.5046955 
H    -2.4180460    0.5350095    3.7151502 
H     1.0624046   -1.0368228    5.7628465 
H     0.7752537    0.6592342    7.5478049 
C     3.6421007    1.0794212    4.4467618 
C     3.2097391    2.5524130    4.6271794 
C     4.2237028    3.4650663    3.8868858 
C     3.2315154    2.8809408    6.1389534 
C     1.8172086    2.8165662    4.0212951 
C     1.2838824    1.9882979    3.0185873 
C     1.0645517    3.9471775    4.3956127 
C    -0.1776162    4.2738702    3.8136110 
C    -0.9408870    5.5294846    4.2797681 
C    -1.1938026    5.4501501    5.8068561 
C    -0.0836347    6.7819761    3.9612574 
C    -2.3039553    5.6744842    3.5691831 
C    -0.6661171    3.4375714    2.7954300 
C     0.0664734    2.3093798    2.3929895 
C    -2.2200078    1.5434048    0.6943182 
C    -2.6868715    2.7682956    0.1776746 
C    -4.0613633    2.9800083    0.0002022 
C    -4.6233529    4.3041017   -0.5508802 
C    -3.5005347    5.2997693   -0.9110673 
C    -5.5352094    4.9522296    0.5222765 
C    -5.4462272    4.0117495   -1.8314372 
C    -4.9454764    1.9294064    0.3423667 
C    -4.5065036    0.6901836    0.8377583 
C    -3.1189585    0.5155824    1.0063465 
C    -5.4593008   -0.4631060    1.2074223 
C    -6.9332952   -0.1205527    0.9104920 
C    -5.0732452   -1.7255313    0.3951666 
C    -5.3150005   -0.7646497    2.7220058 
C     0.4350596    1.9970294   -0.4513976 
C     1.5058140    2.8882689   -0.2355804 
C     2.2096650    3.4269487   -1.3192389 
C     1.8589222    3.0873841   -2.6300627 
C     0.0630794    1.6453130   -1.7729643 
C     0.7815919    2.2166467   -2.8518474 
C    -1.0973801    0.7672396   -2.1158179 
C    -2.1756338    1.3736911   -2.8067112 
O    -2.0760649    2.7267193   -3.0173752 
C    -2.3911374    3.2466757   -4.3238888 
C    -1.4500276    2.7178373   -5.4096670 
C     0.0382286    2.8538477   -5.0760814 
O     0.4144293    1.8393384   -4.1172247 
C    -3.2956368    0.6304270   -3.2070162 
C    -3.3327984   -0.7433217   -2.9488355 
C    -2.2694650   -1.3722880   -2.2905505 
C    -1.1510907   -0.6273591   -1.8651081 
C     1.7529294   -0.9232693   -1.7995273 
C     1.8149568   -0.9421969   -3.2049093 
C     2.9876891   -0.5416450   -3.8641308 
C     3.1112514   -0.5413496   -5.3994640 
C     4.2290936   -1.5292395   -5.8196653 
C     3.4696645    0.8893014   -5.8767911 
C     1.7923386   -0.9637521   -6.0803267 
C     4.0705323   -0.1110156   -3.0699444 
C     4.0253426   -0.0522616   -1.6636117 
C     2.8434077   -0.4809397   -1.0339849 
C     5.2477911    0.4442429   -0.8675514 
C     6.3629561   -0.6288049   -0.9640527 
C     4.9006362    0.6791524    0.6185353 
C     5.7630507    1.7808977   -1.4567042 
C     0.0098248   -3.2360981   -1.2850460 
C     0.8666065   -3.9514263   -2.1384276 
C     0.6602097   -5.3227085   -2.3720162 
C     1.5412646   -6.1103885   -3.3620404 
C     2.8541137   -5.3606948   -3.6814209 
C     0.7328706   -6.2895650   -4.6747652 
C     1.9034158   -7.5043846   -2.7934724 
C    -0.4191610   -5.9524342   -1.7157395 
C    -1.2811057   -5.2684415   -0.8371278 
C    -1.0429274   -3.8970660   -0.6295076 
C    -2.4675833   -5.9473355   -0.1252496 
C    -3.7832654   -5.3774338   -0.7173194 
C    -2.4605257   -7.4787325   -0.3129791 
C    -2.4088928   -5.6418318    1.3936323 
H     4.6140760    0.9127548    4.9418596 
H     3.7674902    0.8105253    3.3839363 
H     2.9047649    0.3924393    4.8966257 
H     5.2428431    3.3160369    4.2873971 
H     4.2397065    3.2360934    2.8064189 
H     3.9577687    4.5298704    4.0068078 
H     4.2217242    2.6381055    6.5622623 
H     2.4683033    2.2960749    6.6793236 
H     3.0473655    3.9508112    6.3347348 
H     1.8184531    1.0884140    2.6962905 
H     1.4623313    4.6045502    5.1743444 
H    -1.7201298    6.3573472    6.1529551 
H    -1.8164238    4.5740810    6.0557020 
H    -0.2518523    5.3701021    6.3760779 
H     0.8891120    6.7513311    4.4819314 
H     0.1121276    6.8563062    2.8770392 
H    -0.6102731    7.6984192    4.2823356 
H    -2.1876350    5.7887574    2.4768911 
H    -2.9577705    4.8040241    3.7571836 
H    -2.8246131    6.5726817    3.9432790 
H    -1.6218930    3.6523528    2.3150442 
H    -1.9622090    3.5342729   -0.1066098 
H    -2.8143646    4.8742015   -1.6629299 
H    -2.9095189    5.5857906   -0.0228813 
H    -3.9414192    6.2222724   -1.3265584 
H    -6.3820172    4.2963070    0.7888701 
H    -4.9641185    5.1634534    1.4436773 
H    -5.9506879    5.9044538    0.1468668 
H    -4.8092376    3.5297534   -2.5921758 
H    -5.8456219    4.9511043   -2.2533070 
H    -6.3013125    3.3444665   -1.6282175 
H    -6.0173549    2.0917796    0.2036001 
H    -2.7190869   -0.4384475    1.3682738 
H    -7.2766498    0.7502696    1.4960683 
H    -7.5760497   -0.9763874    1.1794488 
H    -7.0924626    0.0949950   -0.1608380 
H    -4.0329974   -2.0363592    0.5961132 
H    -5.7341449   -2.5697042    0.6605086 
H    -5.1617691   -1.5392815   -0.6885085 
H    -4.2876197   -1.0793019    2.9779874 
H    -5.9989595   -1.5797345    3.0183436 
H    -5.5566713    0.1270532    3.3262804 
H     1.7835547    3.1725340    0.7825649 
H     3.0395971    4.1172907   -1.1374223 
H     2.4155224    3.4855242   -3.4836541 
H    -3.4464602    3.0428527   -4.5876971 
H    -2.2832257    4.3371118   -4.2037921 
H    -1.6606092    1.6520935   -5.6124194 
H    -1.6638002    3.2715385   -6.3432612 
H     0.2753919    3.8578124   -4.6775600 
H     0.6480989    2.6838503   -5.9800538 
H    -4.1288650    1.1238819   -3.7146952 
H    -4.1972857   -1.3343164   -3.2684912 
H    -2.3078940   -2.4511950   -2.1249250 
H     0.9324097   -1.2470412   -3.7716891 
H     4.3402536   -1.5376215   -6.9187721 
H     5.2039948   -1.2504544   -5.3832947 
H     3.9897914   -2.5550996   -5.4884745 
H     4.4423022    1.2245700   -5.4775820 
H     3.5302075    0.9222179   -6.9792604 
H     2.6980631    1.6032171   -5.5432959 
H     0.9656578   -0.2868207   -5.8030071 
H     1.9123257   -0.9305410   -7.1770767 
H     1.5049744   -1.9956779   -5.8095730 
H     4.9887384    0.2071742   -3.5742097 
H     2.7428359   -0.4610127    0.0547351 
H     6.0094327   -1.5949330   -0.5648390 
H     6.6719203   -0.7879023   -2.0119170 
H     7.2529338   -0.3148473   -0.3890646 
H     5.7785844    1.0841313    1.1508730 
H     4.6111884   -0.2580747    1.1227174 
H     4.0723436    1.4018767    0.7274146 
H     4.9720677    2.5494494   -1.4299679 
H     6.0983281    1.6716365   -2.5020540 
H     6.6242633    2.1461751   -0.8697366 
H     1.7011932   -3.4322353   -2.6114177 
H     2.6682933   -4.4045868   -4.2012491 
H     3.4818579   -5.9784844   -4.3462619 
H     3.4311143   -5.1467987   -2.7643804 
H     1.3256836   -6.8514691   -5.4188329 
H    -0.2045200   -6.8436564   -4.4920729 
H     0.4701482   -5.3086696   -5.1090660 
H     2.4436092   -7.4161504   -1.8351016 
H     2.5537331   -8.0424451   -3.5049358 
H     1.0118218   -8.1320457   -2.6259682 
H    -0.5884628   -7.0159079   -1.8966276 
H    -1.6854760   -3.3277906    0.0525381 
H    -3.8499026   -5.5922723   -1.7981686 
H    -4.6590612   -5.8310372   -0.2195368 
H    -3.8447567   -4.2835841   -0.5826434 
H    -3.3085202   -7.9243379    0.2349116 
H    -1.5314825   -7.9314536    0.0762835 
H    -2.5683973   -7.7624972   -1.3743697 
H    -2.5023724   -4.5608682    1.6015509 
H    -1.4588661   -5.9961210    1.8315543 
H    -3.2385999   -6.1487945    1.9167861 
