197
Energy =
C    -1.8027553    2.7617412    1.6352466 
C    -2.9288422    1.8889039    1.5140137 
C    -2.9713798    0.6473530    2.1867980 
H    -3.6856251    2.0911969    0.7455678 
Pd   -1.1273711    0.7939244    0.8568203 
P    -0.9742394   -1.3363029   -0.0605105 
P     1.0949636    1.2860112    0.3629044 
H    -1.2731815    2.7810145    2.5970354 
H    -2.2868887    0.5105110    3.0401472 
C    -1.1287368    6.2162021   -0.8516619 
C    -2.0455109    5.2314313   -1.2571004 
C    -2.2722036    4.1072283   -0.4580464 
C    -1.5991104    3.9454161    0.7771628 
C    -0.6853440    4.9473571    1.1754278 
C    -0.4520119    6.0669939    0.3674302 
H    -0.9476846    7.0932335   -1.4814452 
H    -2.5830497    5.3395441   -2.2049073 
H    -2.9731871    3.3401253   -0.8050780 
H    -0.1502208    4.8406146    2.1251080 
H     0.2611057    6.8295400    0.6958487 
C    -6.0865569   -2.3049947    1.9532510 
C    -4.8280320   -2.6307223    2.4821921 
C    -3.8278861   -1.6582652    2.5596357 
C    -4.0571412   -0.3419261    2.0970620 
C    -5.3321907   -0.0246633    1.5775363 
C    -6.3362714   -0.9967332    1.5115940 
H    -6.8742115   -3.0634103    1.8966458 
H    -4.6236691   -3.6475252    2.8316831 
H    -2.8455416   -1.9242044    2.9614918 
H    -5.5528686    0.9970525    1.2531771 
H    -7.3249578   -0.7296260    1.1251788 
C    -0.9202317   -2.6399943    5.2804789 
C     0.4635500   -3.0922874    4.7467673 
C     0.9176197   -4.3257799    5.5539994 
C     1.4919901   -1.9528688    4.9621505 
C     0.3584127   -3.3902423    3.2375420 
C    -0.1502643   -2.4017125    2.3706373 
C     0.7617451   -4.6076050    2.6631566 
C     0.6879526   -4.8692101    1.2743190 
C     1.1875205   -6.2164460    0.7194257 
C     0.3595713   -7.3643560    1.3511955 
C     1.0498334   -6.2928798   -0.8158916 
C     2.6866996   -6.3840926    1.0789265 
C     0.1623757   -3.8683763    0.4454940 
C    -0.2668237   -2.6438459    0.9958889 
C    -2.6049869   -1.9127692   -0.6637498 
C    -3.4395437   -0.9359869   -1.2455375 
C    -4.6341286   -1.3005925   -1.8817445 
C    -5.4986979   -0.2704810   -2.6352458 
C    -7.0029546   -0.4947845   -2.3489263 
C    -5.2294386   -0.4494869   -4.1531888 
C    -5.1436363    1.1798679   -2.2386688 
C    -4.9857137   -2.6697788   -1.8781375 
C    -4.1951329   -3.6601992   -1.2696570 
C    -2.9874857   -3.2586470   -0.6617611 
C    -4.5739492   -5.1546708   -1.2693604 
C    -3.4726946   -5.9500736   -2.0185150 
C    -5.9260649   -5.4149067   -1.9646260 
C    -4.6694395   -5.6612164    0.1924872 
C     0.0604076   -1.3407114   -1.5963496 
C    -0.5700271   -1.3661789   -2.8559995 
C     0.1840730   -1.3282053   -4.0344811 
C     1.5794227   -1.2990355   -3.9705606 
C     1.4781919   -1.2891144   -1.5137507 
C     2.2151857   -1.3138564   -2.7208341 
C     2.2368591   -1.2581608   -0.2276942 
C     3.1092600   -2.3333073    0.0575806 
O     3.2155908   -3.3745316   -0.8455330 
C     4.4264616   -3.3636463   -1.6312730 
C     4.1942329   -2.6100143   -2.9391199 
O     3.5966186   -1.3240769   -2.6697045 
C     3.8519520   -2.3834600    1.2461809 
C     3.7809768   -1.3190519    2.1473469 
C     2.9652659   -0.2161700    1.8663111 
C     2.1871278   -0.1753734    0.6936619 
C     1.5014320    1.7837716   -1.3427798 
C     2.8453138    1.8182392   -1.7599771 
C     3.1668861    2.1901860   -3.0741662 
C     4.6190985    2.2396798   -3.5849793 
C     4.7637072    1.2798313   -4.7942199 
C     4.9539033    3.6893380   -4.0192656 
C     5.6235862    1.8010276   -2.4986382 
C     2.1012641    2.5073385   -3.9426413 
C     0.7472996    2.4557007   -3.5600316 
C     0.4604304    2.0962257   -2.2301731 
C    -0.3618019    2.8150408   -4.5679411 
C    -0.1019486    2.1252440   -5.9298320 
C    -0.3605275    4.3541306   -4.7594090 
C    -1.7518535    2.3693519   -4.0631886 
C     1.7302873    2.5996190    1.4735901 
C     1.3929953    2.5137367    2.8395930 
C     1.8127241    3.4976384    3.7479487 
C     1.4341399    3.4572121    5.2407942 
C     0.5971541    4.7187253    5.5772439 
C     0.5968705    2.2090814    5.5930931 
C     2.7244615    3.4396479    6.0991573 
C     2.5827128    4.5670340    3.2402465 
C     2.9234817    4.6899051    1.8802619 
C     2.4767235    3.6868003    0.9968896 
C     3.7972498    5.8635196    1.3946958 
C     5.2485697    5.6119403    1.8825446 
C     3.2861494    7.2031768    1.9802097 
C     3.8001281    5.9772032   -0.1460418 
H    -0.8697600   -2.4641567    6.3694569 
H    -1.2539155   -1.6982654    4.8102501 
H    -1.6892696   -3.4089275    5.0900180 
H     0.9634629   -4.0718999    6.6270228 
H     0.2148091   -5.1694860    5.4374392 
H     1.9233713   -4.6657557    5.2507553 
H     1.5469899   -1.6814200    6.0316824 
H     1.2189597   -1.0482065    4.3912877 
H     2.4954917   -2.2666391    4.6293784 
H    -0.4456782   -1.4200448    2.7581284 
H     1.1658713   -5.3880030    3.3127334 
H    -0.7121043   -7.2541157    1.1067440 
H     0.7032351   -8.3404452    0.9649003 
H     0.4579091   -7.3838359    2.4504591 
H     1.4314018   -7.2647591   -1.1736435 
H     1.6299956   -5.4936201   -1.3084081 
H    -0.0043010   -6.2130012   -1.1367049 
H     2.8514224   -6.3718710    2.1703538 
H     3.0650104   -7.3474764    0.6929622 
H     3.2761046   -5.5680135    0.6273747 
H     0.1088854   -4.0116100   -0.6361271 
H    -3.1201293    0.1112361   -1.2137800 
H    -7.6051168    0.2633347   -2.8795715 
H    -7.2137204   -0.4117014   -1.2694839 
H    -7.3479645   -1.4853422   -2.6900004 
H    -4.1630938   -0.2750459   -4.3834493 
H    -5.8320593    0.2668095   -4.7404388 
H    -5.4881970   -1.4701615   -4.4845509 
H    -5.8120776    1.8842552   -2.7625816 
H    -4.1085239    1.4437851   -2.5141805 
H    -5.2677579    1.3374948   -1.1529746 
H    -5.9128032   -2.9668962   -2.3728110 
H    -2.3398358   -4.0014657   -0.1878276 
H    -3.7243113   -7.0254639   -2.0378356 
H    -3.3746581   -5.5986042   -3.0605704 
H    -2.4889892   -5.8430294   -1.5287933 
H    -5.9063177   -5.1110441   -3.0260300 
H    -6.1586227   -6.4932244   -1.9322347 
H    -6.7515778   -4.8791437   -1.4634164 
H    -3.7193706   -5.5224017    0.7377077 
H    -4.9127121   -6.7385035    0.2063239 
H    -5.4596164   -5.1212149    0.7413891 
H    -1.6592913   -1.4253431   -2.9190019 
H    -0.3225335   -1.3359630   -5.0047321 
H     2.1922670   -1.2743566   -4.8763670 
H     4.6924979   -4.4153002   -1.8342830 
H     5.2400103   -2.8942077   -1.0488795 
H     3.5360543   -3.1888752   -3.6121746 
H     5.1538941   -2.4231357   -3.4513501 
H     4.4861042   -3.2536377    1.4393471 
H     4.3719234   -1.3378103    3.0684919 
H     2.9496448    0.6262342    2.5617718 
H     3.6279820    1.5268274   -1.0557925 
H     4.5138514    0.2493654   -4.4896517 
H     5.8018513    1.2964420   -5.1715401 
H     4.0999058    1.5674791   -5.6279588 
H     5.9919610    3.7469075   -4.3924866 
H     4.8528371    4.3867673   -3.1688700 
H     4.2857518    4.0382561   -4.8257745 
H     5.4229839    0.7681862   -2.1645032 
H     6.6490636    1.8364841   -2.9053778 
H     5.5927571    2.4686282   -1.6186179 
H     2.3405276    2.7956505   -4.9710699 
H    -0.5702495    2.0372314   -1.8699322 
H    -0.9201710    2.3596050   -6.6333653 
H     0.8385425    2.4645686   -6.3958835 
H    -0.0488469    1.0294633   -5.8111833 
H     0.6074779    4.7017299   -5.1607131 
H    -1.1540053    4.6571592   -5.4664883 
H    -0.5328281    4.8661838   -3.7971754 
H    -1.7738654    1.2845432   -3.8566465 
H    -2.5175089    2.5877643   -4.8276819 
H    -2.0423174    2.9026719   -3.1428941 
H     0.7869520    1.6686706    3.1806121 
H    -0.3240942    4.7517428    4.9683190 
H     0.3066618    4.7130751    6.6428311 
H     1.1634972    5.6462463    5.3865498 
H    -0.3562075    2.1826345    5.0336284 
H     0.3471116    2.2210119    6.6678014 
H     1.1467515    1.2735917    5.3888401 
H     3.3465012    4.3332887    5.9200483 
H     2.4686731    3.4180745    7.1734064 
H     3.3349190    2.5482104    5.8707177 
H     2.9220752    5.3399563    3.9368627 
H     2.6987556    3.7534978   -0.0691269 
H     5.6405841    4.6648888    1.4717626 
H     5.2943489    5.5506615    2.9840779 
H     5.9120028    6.4329271    1.5563475 
H     3.3330822    7.2216181    3.0822796 
H     3.9080937    8.0369980    1.6106575 
H     2.2414995    7.3953451    1.6802818 
H     2.7776615    6.1009755   -0.5452844 
H     4.3950162    6.8549054   -0.4517682 
H     4.2518865    5.0909904   -0.6254465 
