206
Energy =
C     0.4921766    1.4222593   -3.5004947 
C    -0.7568700    0.7622930   -3.7378977 
C    -1.9190462    1.1926767   -3.0563176 
H    -0.7792759   -0.1739865   -4.3095852 
Pd   -0.2824472    0.5784724   -1.6032784 
P    -1.5220030   -0.6572763   -0.0741414 
P     1.4868075    0.9943079   -0.1382531 
H     0.4577246    2.4987463   -3.2841838 
H    -1.8893228    2.2114206   -2.6371523 
C     4.3075452    0.0290995   -4.9322136 
C     3.2576266   -0.8854585   -4.7398646 
C     2.0144748   -0.4440408   -4.2774333 
C     1.7890015    0.9248195   -3.9963542 
C     2.8569192    1.8303648   -4.1809288 
C     4.0988806    1.3873868   -4.6519696 
H     5.2801396   -0.3171641   -5.2967798 
H     3.4116276   -1.9491020   -4.9510017 
H     1.2129718   -1.1718822   -4.1139314 
H     2.7079942    2.8904372   -3.9509653 
H     4.9071547    2.1101881   -4.8026047 
C    -5.8895836   -0.4401728   -3.0947088 
C    -5.5797318    0.6838145   -2.3144969 
C    -4.2815338    1.2013346   -2.3245204 
C    -3.2635553    0.6049674   -3.1056447 
C    -3.5906790   -0.5306597   -3.8814247 
C    -4.8902795   -1.0456981   -3.8742079 
H    -6.9082753   -0.8408315   -3.0991435 
H    -6.3507840    1.1604716   -1.7002069 
H    -4.0432246    2.0776898   -1.7139882 
H    -2.8277925   -1.0122755   -4.4992646 
H    -5.1256641   -1.9273059   -4.4784681 
C    -6.6669139   -0.2166842    3.2946820 
C    -5.2178840   -0.2205895    3.8501574 
C    -5.1810884    0.5828683    5.1736327 
C    -4.8028270   -1.6762410    4.1535824 
C    -4.3000826    0.4274785    2.7941805 
C    -3.3874593   -0.3247266    2.0322671 
C    -4.3984743    1.8077901    2.5248170 
C    -3.6219376    2.4622859    1.5476490 
C    -3.7653974    3.9800166    1.3258789 
C    -5.1768527    4.2692510    0.7531134 
C    -3.5885279    4.7245325    2.6734029 
C    -2.7061787    4.5155949    0.3387529 
C    -2.7483302    1.6737307    0.7828706 
C    -2.6456850    0.2905094    1.0080211 
C    -2.4930947   -1.9230665   -0.9842752 
C    -3.7951477   -2.3031956   -0.6268077 
C    -4.4359393   -3.3668757   -1.2906313 
C    -5.8261909   -3.8749692   -0.8601796 
C    -6.5420403   -2.8671203    0.0646680 
C    -5.6277916   -5.2075770   -0.0901106 
C    -6.7266277   -4.1292336   -2.0942299 
C    -3.7382893   -4.0083962   -2.3313040 
C    -2.4549500   -3.6116326   -2.7568025 
C    -1.8384116   -2.5587722   -2.0598238 
C    -1.7645209   -4.3455484   -3.9235973 
C    -2.7580819   -4.5508768   -5.0942563 
C    -0.5538393   -3.5556550   -4.4638527 
C    -1.2731708   -5.7234974   -3.4085121 
C    -0.4565509   -1.6525490    1.0537391 
C    -0.3424818   -3.0477788    0.8906974 
C     0.5004992   -3.7786740    1.7341256 
C     1.2172594   -3.1437744    2.7535559 
C     0.2803356   -0.9847683    2.0605054 
C     1.0993334   -1.7531104    2.9290787 
C     0.1902705    0.4849368    2.3250132 
C    -0.4492286    0.8840935    3.5282969 
O    -0.9993933   -0.1255236    4.2607853 
C    -1.2968510    0.1069931    5.6495718 
C    -0.0309006    0.1842571    6.5170482 
C     0.4910930   -1.1725723    7.0228937 
C     0.9408077   -2.1950024    5.9628943 
C     2.1401175   -1.7581158    5.1037717 
O     1.7468206   -1.0565586    3.9075920 
C    -0.5047214    2.2410958    3.8941312 
C     0.0875315    3.2032422    3.0698934 
C     0.7239988    2.8345305    1.8801085 
C     0.7734150    1.4784836    1.4986360 
C     2.4337364    2.4502161   -0.7397570 
C     1.6911978    3.5718478   -1.1693018 
C     2.3292065    4.6859949   -1.7315762 
C     1.5482605    5.9090904   -2.2501947 
C     0.0359918    5.7932469   -1.9660777 
C     1.7535582    6.0155223   -3.7838135 
C     2.0760035    7.1932000   -1.5616223 
C     3.7366004    4.6412690   -1.8583274 
C     4.5043943    3.5352798   -1.4564946 
C     3.8264569    2.4323418   -0.8937281 
C     6.0422773    3.5345323   -1.5695254 
C     6.6127319    4.0918175   -0.2379643 
C     6.5879756    2.1039123   -1.7938954 
C     6.5259189    4.4242718   -2.7380377 
C     2.7126008   -0.3097640    0.2123405 
C     2.6992855   -1.4823153   -0.5640739 
C     3.6721390   -2.4731069   -0.3635882 
C     3.6991688   -3.7801504   -1.1780275 
C     4.9437938   -3.7627208   -2.1031848 
C     3.7759039   -4.9952199   -0.2199900 
C     2.4363045   -3.9312127   -2.0508093 
C     4.6749248   -2.2255200    0.6001055 
C     4.7173306   -1.0598012    1.3859176 
C     3.6922370   -0.1110309    1.1983569 
C     5.8364543   -0.7834304    2.4114146 
C     6.5031603    0.5772743    2.0844232 
C     6.9292015   -1.8724661    2.3921776 
C     5.2243225   -0.7274174    3.8321033 
H    -7.0183473    0.8123309    3.1037808 
H    -6.7253279   -0.7769018    2.3457320 
H    -7.3579305   -0.6853739    4.0182330 
H    -5.5278695    1.6214880    5.0385368 
H    -4.1597766    0.6156296    5.5878589 
H    -5.8409119    0.1091796    5.9216068 
H    -5.4459648   -2.0903629    4.9489943 
H    -4.9123272   -2.3284862    3.2694051 
H    -3.7539641   -1.7335105    4.4941120 
H    -3.2385991   -1.3883329    2.2309044 
H    -5.1088823    2.4022053    3.1083310 
H    -5.3114396    5.3530653    0.5864864 
H    -5.9686986    3.9301498    1.4433883 
H    -5.3233725    3.7515391   -0.2116353 
H    -4.3561861    4.4307389    3.4094298 
H    -3.6738713    5.8150002    2.5203979 
H    -2.5975232    4.5092308    3.1081250 
H    -1.6831054    4.2978893    0.6919956 
H    -2.8222130    4.0819892   -0.6708434 
H    -2.8079841    5.6096479    0.2367242 
H    -2.1148139    2.1198446    0.0113119 
H    -4.3062727   -1.7685157    0.1747711 
H    -7.5538582   -3.2348614    0.3067583 
H    -6.6409702   -1.8772361   -0.4145942 
H    -6.0045291   -2.7355356    1.0195193 
H    -6.6018529   -5.6096150    0.2421706 
H    -5.1421992   -5.9674381   -0.7273100 
H    -4.9929312   -5.0540500    0.8003873 
H    -6.3105239   -4.9036556   -2.7607106 
H    -6.8597437   -3.2066533   -2.6835204 
H    -7.7222769   -4.4774839   -1.7681139 
H    -4.2208845   -4.8462852   -2.8425924 
H    -0.8341810   -2.2194931   -2.3369222 
H    -2.2480228   -5.0438346   -5.9401749 
H    -3.1546588   -3.5830610   -5.4495835 
H    -3.6131597   -5.1868824   -4.8102503 
H    -0.8546800   -2.5546974   -4.8219281 
H     0.2320357   -3.4311163   -3.7019786 
H    -0.1043054   -4.0939309   -5.3155252 
H    -0.7820164   -6.2885566   -4.2211098 
H    -0.5462104   -5.5957993   -2.5868870 
H    -2.1146714   -6.3288460   -3.0289108 
H    -0.9220494   -3.5626403    0.1207622 
H     0.5869040   -4.8629710    1.6085774 
H     1.8580497   -3.7335276    3.4127487 
H    -1.9292488   -0.7482605    5.9386747 
H    -1.9137488    1.0179357    5.7521606 
H     0.7505628    0.7223460    5.9482618 
H    -0.2576199    0.8143113    7.3968905 
H     1.3387183   -0.9830331    7.7092984 
H    -0.2975780   -1.6416675    7.6424122 
H     1.2190566   -3.1273413    6.4877004 
H     0.1046698   -2.4614526    5.2898299 
H     2.7787479   -1.0385248    5.6404874 
H     2.7773530   -2.6210187    4.8385626 
H    -0.9973518    2.5509981    4.8181730 
H     0.0590604    4.2573294    3.3650912 
H     1.1998236    3.5994319    1.2620622 
H     0.6010811    3.5502661   -1.0744674 
H    -0.4842165    6.6896081   -2.3449144 
H    -0.4127931    4.9163219   -2.4674694 
H    -0.1711410    5.7164175   -0.8847759 
H     1.2115768    6.8906188   -4.1845676 
H     1.3727172    5.1125402   -4.2941253 
H     2.8198327    6.1285331   -4.0444512 
H     1.5225337    8.0764764   -1.9267502 
H     3.1466348    7.3597050   -1.7698143 
H     1.9471779    7.1319543   -0.4666521 
H     4.2443420    5.5015417   -2.3022142 
H     4.3871347    1.5471435   -0.5883535 
H     6.2985840    3.4661887    0.6155337 
H     7.7172542    4.1069697   -0.2676205 
H     6.2561507    5.1209985   -0.0571340 
H     6.3894256    1.4441338   -0.9333155 
H     7.6826039    2.1408291   -1.9310192 
H     6.1401615    1.6379746   -2.6877871 
H     7.6225422    4.3476448   -2.8354766 
H     6.2890386    5.4901786   -2.5784038 
H     6.0737028    4.1105717   -3.6957028 
H     1.9140549   -1.6004681   -1.3152507 
H     5.8781820   -3.6959054   -1.5191645 
H     4.9075829   -2.8967046   -2.7871820 
H     4.9867337   -4.6860829   -2.7086596 
H     2.9100111   -5.0058375    0.4640569 
H     3.7755951   -5.9360813   -0.7985812 
H     4.6943113   -4.9814798    0.3913854 
H     1.5173827   -3.9140283   -1.4380134 
H     2.4654393   -4.8916540   -2.5942250 
H     2.3691938   -3.1264798   -2.8019255 
H     5.4541674   -2.9792228    0.7364617 
H     3.6593946    0.7969759    1.8096651 
H     7.3038661    0.7943960    2.8134020 
H     6.9529169    0.5615691    1.0767843 
H     5.7798601    1.4098847    2.1232849 
H     7.4112979   -1.9495596    1.4016875 
H     6.5248618   -2.8643234    2.6610177 
H     7.7132493   -1.6237542    3.1281350 
H     4.4080507    0.0116298    3.8960716 
H     4.8131138   -1.7124575    4.1086657 
H     5.9983298   -0.4575234    4.5727474 
