200
Energy =
C     3.4429392    0.2513866    1.4460816 
C     3.4280570    1.5611881    0.8724595 
C     2.5125615    2.5448472    1.3065643 
H     4.0041557    1.7536416   -0.0416088 
Pd    1.4289548    0.6613426    0.6079043 
P    -0.4241617    1.5276182   -0.5057192 
P     0.4680300   -1.4488622    0.8542821 
H     3.1985700    0.1571581    2.5125042 
H     2.0363124    2.3960578    2.2893409 
C     5.6662083   -3.0573686   -0.1909456 
C     5.3598018   -1.9511991   -1.0017857 
C     4.6389576   -0.8735690   -0.4801252 
C     4.2149818   -0.8676259    0.8707773 
C     4.5319520   -1.9853397    1.6745517 
C     5.2489624   -3.0667250    1.1475890 
H     6.2277810   -3.9028499   -0.6013352 
H     5.6829289   -1.9313439   -2.0478809 
H     4.3905923   -0.0308865   -1.1347675 
H     4.2063057   -2.0052122    2.7201657 
H     5.4848002   -3.9209469    1.7897086 
C     2.0947777    6.5208393   -0.2731126 
C     1.0817720    5.9530701    0.5149792 
C     1.2333195    4.6626512    1.0289329 
C     2.3952218    3.9049064    0.7562606 
C     3.4142101    4.4941874   -0.0253748 
C     3.2649566    5.7903127   -0.5308085 
H     1.9794152    7.5331156   -0.6740717 
H     0.1674197    6.5159212    0.7264026 
H     0.4309185    4.2214418    1.6281250 
H     4.3452611    3.9496064   -0.2107899 
H     4.0724520    6.2393017   -1.1179768 
C    -1.9064786   -5.8875190   -3.0412788 
C    -0.9935528   -5.9023922   -1.7888690 
C    -0.0010784   -7.0894388   -1.8822397 
C    -1.8823368   -6.0933221   -0.5418972 
C    -0.1968166   -4.5855443   -1.7266622 
C    -0.2417191   -3.7319510   -0.6132206 
C     0.6073968   -4.1960875   -2.8175006 
C     1.3485746   -2.9991186   -2.8458461 
C     2.1942215   -2.6402097   -4.0829504 
C     1.3505552   -2.7979796   -5.3722561 
C     2.7025222   -1.1839860   -4.0195542 
C     3.4112338   -3.5996185   -4.1378608 
C     1.3001140   -2.1780148   -1.7053368 
C     0.5144475   -2.5454725   -0.6016062 
C     1.2320508   -2.3703195    2.2440506 
C     1.6641792   -3.7015326    2.1203622 
C     2.2520471   -4.3656461    3.2118053 
C     2.6668838   -5.8478669    3.1231160 
C     2.7487985   -6.3326187    1.6583919 
C     1.5944146   -6.6851716    3.8697442 
C     4.0459232   -6.0765860    3.7892594 
C     2.4033047   -3.6515973    4.4199961 
C     1.9999260   -2.3107000    4.5689826 
C     1.4147139   -1.6808433    3.4549209 
C     2.1497153   -1.5291231    5.8887891 
C     2.9900187   -2.2984859    6.9292285 
C     2.8398416   -0.1681943    5.6147308 
C     0.7339249   -1.2829048    6.4730223 
C    -1.3245415   -1.3263495    1.3084621 
C    -1.7467905   -1.5630371    2.6320597 
C    -3.0959748   -1.4313365    2.9835836 
C    -4.0451643   -1.0683032    2.0233784 
C    -2.2756130   -0.9635094    0.3201467 
C    -3.6360523   -0.8556705    0.6984850 
C    -1.9567912   -0.7772544   -1.1288297 
C    -2.5146967   -1.7148150   -2.0334490 
O    -3.2357834   -2.7411216   -1.4757303 
C    -4.5131409   -3.0779695   -2.0509439 
C    -5.5248923   -1.9325637   -1.9531483 
C    -5.6653305   -1.3308582   -0.5523596 
O    -4.5272881   -0.4837474   -0.2740871 
C    -2.2949806   -1.6118622   -3.4149546 
C    -1.5387587   -0.5450384   -3.9117742 
C    -0.9961542    0.4079505   -3.0420384 
C    -1.1980257    0.2991576   -1.6508723 
C    -1.7755249    2.1079376    0.5743979 
C    -3.0628533    2.3729332    0.0665600 
C    -4.0770316    2.8291188    0.9204657 
C    -5.5021725    3.1273383    0.4179108 
C    -5.8226922    4.6245533    0.6590405 
C    -6.5069345    2.2414784    1.1983844 
C    -5.6568740    2.8248803   -1.0874742 
C    -3.7644914    3.0043984    2.2891386 
C    -2.4960953    2.7286387    2.8269969 
C    -1.5030836    2.2705081    1.9391449 
C    -2.1500602    2.9089575    4.3181380 
C    -1.6398059    1.5630492    4.8925462 
C    -3.3668911    3.3660466    5.1480473 
C    -1.0321663    3.9760791    4.4477831 
C     0.0401752    2.8975412   -1.6297584 
C     1.2756792    2.7730739   -2.2973176 
C     1.6483439    3.6886215   -3.2920137 
C     2.9375652    3.5076219   -4.1176241 
C     3.6443174    4.8650670   -4.3477963 
C     2.5387149    2.8957123   -5.4870389 
C     3.9365874    2.5564011   -3.4215658 
C     0.7580903    4.7505542   -3.5707459 
C    -0.4638378    4.9207659   -2.8965338 
C    -0.8127593    3.9697846   -1.9156730 
C    -1.4392104    6.0744849   -3.2046670 
C    -1.6776591    6.9047199   -1.9175443 
C    -0.9013075    7.0179444   -4.3002871 
C    -2.7862053    5.4755916   -3.6878592 
H    -2.5057608   -6.8140453   -3.0898826 
H    -1.3231585   -5.8166882   -3.9753516 
H    -2.5949237   -5.0269634   -3.0014457 
H    -0.5508911   -8.0461900   -1.9342927 
H     0.6371089   -7.0160129   -2.7799433 
H     0.6595228   -7.1177864   -0.9979353 
H    -2.4578363   -7.0305990   -0.6344878 
H    -2.5965540   -5.2591789   -0.4289616 
H    -1.2804999   -6.1639617    0.3818832 
H    -0.8769116   -3.9649966    0.2443560 
H     0.6484804   -4.8534078   -3.6921139 
H     1.9520749   -2.5163312   -6.2545297 
H     1.0115794   -3.8370721   -5.5221195 
H     0.4589183   -2.1489738   -5.3368951 
H     1.8642556   -0.4705989   -3.9282284 
H     3.3848901   -1.0279167   -3.1675328 
H     3.2602148   -0.9390462   -4.9400002 
H     4.0523220   -3.3620464   -5.0060777 
H     4.0172128   -3.5127552   -3.2195936 
H     3.0855769   -4.6504010   -4.2310064 
H     1.8550218   -1.2370059   -1.6612101 
H     1.5467711   -4.2117957    1.1634396 
H     3.4522021   -5.7195351    1.0675753 
H     1.7649071   -6.3042073    1.1583656 
H     3.0993954   -7.3786581    1.6324723 
H     1.5222950   -6.3853680    4.9299528 
H     0.6005278   -6.5481133    3.4081738 
H     1.8496429   -7.7595256    3.8325385 
H     4.8272590   -5.4620635    3.3096218 
H     4.3376984   -7.1370192    3.6941724 
H     4.0350394   -5.8351430    4.8655450 
H     2.8549086   -4.1627650    5.2727570 
H     1.0927888   -0.6349333    3.5245823 
H     2.5128193   -3.2507139    7.2193061 
H     3.0951875   -1.6908166    7.8443562 
H     4.0038973   -2.5178732    6.5505003 
H     2.2389577    0.4722562    4.9445628 
H     2.9783530    0.3861060    6.5595078 
H     3.8326132   -0.3144657    5.1532794 
H     0.1024541   -0.7126096    5.7700834 
H     0.7991280   -0.7088670    7.4147848 
H     0.2277532   -2.2406070    6.6861449 
H    -1.0244802   -1.8666993    3.3932276 
H    -3.4065959   -1.6134802    4.0175640 
H    -5.0991647   -0.9455766    2.2897182 
H    -4.4006364   -3.4086932   -3.1011507 
H    -4.8432348   -3.9487600   -1.4612541 
H    -5.2506768   -1.1200677   -2.6502700 
H    -6.5079868   -2.3196407   -2.2811680 
H    -6.5625623   -0.6902031   -0.5001689 
H    -5.7503070   -2.1168512    0.2208554 
H    -2.7095556   -2.3626197   -4.0932306 
H    -1.3742571   -0.4504386   -4.9899457 
H    -0.4243974    1.2455925   -3.4489724 
H    -3.2657705    2.1836322   -0.9897206 
H    -6.8437346    4.8587958    0.3085504 
H    -5.7647566    4.8878634    1.7294452 
H    -5.1128320    5.2691298    0.1106061 
H    -6.4884283    2.4538043    2.2811576 
H    -7.5357736    2.4205094    0.8385145 
H    -6.2630647    1.1755971    1.0533394 
H    -5.4298747    1.7678153   -1.3076541 
H    -6.6947939    3.0290837   -1.4024579 
H    -4.9937716    3.4599591   -1.7015451 
H    -4.5540240    3.3589093    2.9562921 
H    -0.5039038    2.0123046    2.3081229 
H    -2.4158479    0.7830784    4.8166896 
H    -0.7490836    1.2004709    4.3502391 
H    -1.3631734    1.6800590    5.9553853 
H    -3.0768071    3.4706099    6.2076945 
H    -4.1918807    2.6337179    5.0968794 
H    -3.7485227    4.3451680    4.8092684 
H    -1.3519050    4.9384250    4.0115054 
H    -0.1071461    3.6597444    3.9336822 
H    -0.7823620    4.1434658    5.5105963 
H     1.9281512    1.9324549   -2.0383124 
H     3.0235240    5.5633494   -4.9339891 
H     4.5823921    4.7106070   -4.9090255 
H     3.8896628    5.3484139   -3.3871368 
H     3.4321006    2.7505876   -6.1210200 
H     2.0491131    1.9152023   -5.3490921 
H     1.8368368    3.5554685   -6.0263563 
H     4.2003348    2.9247957   -2.4150231 
H     4.8645618    2.4903494   -4.0149305 
H     3.5366336    1.5329911   -3.3254172 
H     1.0353396    5.4671607   -4.3464347 
H    -1.7573416    4.0654181   -1.3730698 
H    -0.7352078    7.3588574   -1.5669229 
H    -2.3995521    7.7167002   -2.1165746 
H    -2.0837782    6.2846922   -1.0989825 
H    -1.6281187    7.8282613   -4.4818226 
H    -0.7470389    6.4886574   -5.2570481 
H     0.0537791    7.4858352   -4.0025084 
H    -3.5015145    6.2837817   -3.9231968 
H    -3.2458617    4.8326904   -2.9168062 
H    -2.6410247    4.8658218   -4.5967103 
