206
Energy =
C     0.5237539    1.3316662   -3.5684115 
C    -0.7362091    0.6964058   -3.8158519 
C    -1.9004348    1.1459276   -3.1519638 
H    -0.7705808   -0.2437542   -4.3799975 
Pd   -0.2827245    0.5304153   -1.6710879 
P    -1.5054005   -0.6779866   -0.1059163 
P     1.4820850    0.9889686   -0.2171359 
H     0.5148025    2.4099458   -3.3615608 
H    -1.8637197    2.1645673   -2.7333392 
C     4.3495920   -0.2160774   -4.8038515 
C     3.2289704   -1.0634066   -4.7791997 
C     1.9814407   -0.5714536   -4.3849234 
C     1.8181884    0.7866966   -4.0191841 
C     2.9525501    1.6292536   -4.0552295 
C     4.2030571    1.1303985   -4.4401369 
H     5.3275240   -0.6039228   -5.1069541 
H     3.3310195   -2.1158707   -5.0641083 
H     1.1270844   -1.2551152   -4.3462580 
H     2.8488564    2.6821692   -3.7707849 
H     5.0686075    1.7999820   -4.4596994 
C    -5.8988189   -0.4093543   -3.3200290 
C    -5.5924150    0.7041218   -2.5226475 
C    -4.2831149    1.1911234   -2.4802280 
C    -3.2514462    0.5767702   -3.2293046 
C    -3.5744191   -0.5530467   -4.0148208 
C    -4.8840354   -1.0395131   -4.0574036 
H    -6.9262282   -0.7834802   -3.3726690 
H    -6.3757141    1.1958110   -1.9364329 
H    -4.0470802    2.0595337   -1.8568407 
H    -2.8004484   -1.0499838   -4.6060248 
H    -5.1171208   -1.9140593   -4.6726059 
C    -5.1680490    4.2274470    0.7159137 
C    -3.7389224    3.9698002    1.2586646 
C    -2.7107468    4.4888073    0.2296211 
C    -3.5339170    4.7535646    2.5795897 
C    -3.5717087    2.4603611    1.5175415 
C    -2.7211955    1.6611269    0.7378639 
C    -4.2968754    1.8243670    2.5452553 
C    -4.1658731    0.4535042    2.8497324 
C    -5.0217391   -0.1779620    3.9658470 
C    -6.4957823   -0.2132732    3.4828848 
C    -4.5708288   -1.6190918    4.2873038 
C    -4.9298238    0.6640445    5.2623073 
C    -3.2753162   -0.3076828    2.0718188 
C    -2.5871297    0.2879077    0.9999396 
C    -2.5316560   -1.9315955   -0.9684023 
C    -1.9406591   -2.5844000   -2.0723880 
C    -2.6124248   -3.6215075   -2.7361843 
C    -1.9807586   -4.3892042   -3.9148259 
C    -2.9985362   -4.5401992   -5.0725973 
C    -1.5596840   -5.7929938   -3.4060308 
C    -0.7324939   -3.6713271   -4.4704925 
C    -3.8934665   -3.9827970   -2.2613730 
C    -4.5180278   -3.3361521   -1.1812910 
C    -3.8168265   -2.2898227   -0.5466026 
C    -5.8827038   -3.7822674   -0.6192358 
C    -6.7982380   -2.5586512   -0.3701057 
C    -6.6154590   -4.7498741   -1.5721984 
C    -5.6239731   -4.5056259    0.7297583 
C    -0.4154285   -1.6804674    0.9937314 
C    -0.3034161   -3.0739446    0.8149654 
C     0.5742877   -3.8089373    1.6186021 
C     1.3382758   -3.1801182    2.6075295 
C     0.3569550   -1.0218146    1.9796880 
C     1.2246283   -1.7912281    2.7978011 
C     0.2581391    0.4408992    2.2722946 
C    -0.3414076    0.8138631    3.5039789 
O    -0.8270508   -0.2146850    4.2573608 
C    -1.0210451   -0.0038659    5.6686220 
C     0.3058932    0.1151661    6.4359777 
C     0.9018192   -1.2194870    6.9190939 
C     1.3022812   -2.2467887    5.8444892 
C     2.4223875   -1.7963408    4.8915851 
O     1.9236128   -1.0920260    3.7384824 
C    -0.4246351    2.1667382    3.8785527 
C     0.1103246    3.1494345    3.0395822 
C     0.7201956    2.8044109    1.8292065 
C     0.7921952    1.4522795    1.4366029 
C     2.3785910    2.4834575   -0.7952066 
C     1.5951143    3.5757692   -1.2074270 
C     2.1862736    4.7512459   -1.7056305 
C     1.2908009    5.9383042   -2.1114691 
C     0.1720685    5.4495206   -3.0669867 
C     2.0870707    7.0505120   -2.8252452 
C     0.6512288    6.5271261   -0.8268851 
C     3.5911646    4.7867986   -1.7847979 
C     4.4067260    3.7024485   -1.3956197 
C     3.7791047    2.5438571   -0.9026604 
C     5.9410485    3.8257688   -1.4804915 
C     6.3660190    4.3496971   -2.8751067 
C     6.4054252    4.8304377   -0.3928971 
C     6.6400020    2.4717577   -1.2345382 
C     2.7275454   -0.3045779    0.0972407 
C     2.7017453   -1.4707403   -0.6848647 
C     3.6591557   -2.4802715   -0.4827089 
C     3.6732367   -3.7822689   -1.3062941 
C     3.7883690   -5.0060693   -0.3637308 
C     2.3857866   -3.9384342   -2.1426433 
C     4.8930061   -3.7447770   -2.2633846 
C     4.6488245   -2.2529759    0.4931961 
C     4.6991962   -1.0933598    1.2934694 
C     3.7025538   -0.1228334    1.0959833 
C     5.8432328   -0.9081112    2.3100210 
C     7.1718103   -0.7373309    1.5275550 
C     5.9532842   -2.1515606    3.2268700 
C     5.6232936    0.3355593    3.1969240 
H    -5.3337028    3.6799425   -0.2291173 
H    -5.9365529    3.8986711    1.4368826 
H    -5.3201763    5.3044731    0.5224175 
H    -2.8536564    4.0327733   -0.7666884 
H    -1.6776064    4.2820673    0.5595075 
H    -2.8191453    5.5801153    0.1075549 
H    -3.6333441    5.8385068    2.3985203 
H    -4.2792929    4.4744019    3.3436347 
H    -2.5299641    4.5591458    2.9942577 
H    -2.1293395    2.0914775   -0.0744652 
H    -4.9898408    2.4259554    3.1422762 
H    -7.1440583   -0.6625937    4.2564719 
H    -6.5910305   -0.8133310    2.5610666 
H    -6.8721182    0.8021151    3.2683056 
H    -4.7179006   -2.2964108    3.4277889 
H    -5.1668091   -2.0185972    5.1257391 
H    -3.5053429   -1.6538252    4.5736364 
H    -3.8878103    0.7256924    5.6185553 
H    -5.3016701    1.6925120    5.1167284 
H    -5.5394169    0.2014917    6.0583089 
H    -3.1007153   -1.3624536    2.2947007 
H    -0.9423463   -2.2686054   -2.3946905 
H    -2.5346434   -5.0831996   -5.9144810 
H    -3.3255971   -3.5523813   -5.4420645 
H    -3.8952953   -5.1060822   -4.7692691 
H    -1.1086558   -6.3823339   -4.2246142 
H    -0.8178825   -5.7055353   -2.5923551 
H    -2.4279005   -6.3532594   -3.0176861 
H     0.0688519   -3.5912045   -3.7182086 
H    -0.9787415   -2.6550254   -4.8272062 
H    -0.3260835   -4.2357264   -5.3269415 
H    -4.4184892   -4.8005826   -2.7599787 
H    -4.2741059   -1.7602055    0.2922738 
H    -7.7632790   -2.8911225    0.0510061 
H    -6.9965636   -2.0169421   -1.3089638 
H    -6.3531726   -1.8442556    0.3432739 
H    -6.7776627   -4.2923745   -2.5644089 
H    -6.0601973   -5.6939272   -1.7105198 
H    -7.6026593   -5.0090038   -1.1525635 
H    -6.5764708   -4.8505374    1.1708482 
H    -4.9692739   -5.3829353    0.5866050 
H    -5.1347334   -3.8312007    1.4547991 
H    -0.9110720   -3.5844491    0.0638396 
H     0.6554011   -4.8923745    1.4828239 
H     2.0126807   -3.7735036    3.2287381 
H    -1.5993735   -0.8827427    5.9974376 
H    -1.6593939    0.8836193    5.8294646 
H     1.0274895    0.6645729    5.8027062 
H     0.1310997    0.7517420    7.3228185 
H     1.7914016   -0.9958834    7.5389709 
H     0.1745436   -1.7007111    7.6012068 
H     1.6433853   -3.1628411    6.3610327 
H     0.4274867   -2.5465539    5.2374227 
H     3.1011385   -1.0755627    5.3761813 
H     3.0382426   -2.6544242    4.5676628 
H    -0.8933284    2.4570729    4.8212983 
H     0.0622564    4.2010068    3.3410383 
H     1.1578135    3.5862558    1.2044624 
H     0.5030105    3.5007693   -1.1401902 
H    -0.4586150    6.2995769   -3.3810588 
H     0.6008129    4.9863828   -3.9732351 
H    -0.4917799    4.7111599   -2.5826899 
H     1.4034302    7.8635853   -3.1241000 
H     2.5831914    6.6734646   -3.7369618 
H     2.8558904    7.4916944   -2.1673032 
H    -0.0113199    7.3745813   -1.0789006 
H     1.4299934    6.8903957   -0.1338908 
H     0.0480900    5.7703714   -0.2961223 
H     4.0746953    5.6890522   -2.1658461 
H     4.3725819    1.6756352   -0.6124664 
H     5.9609730    5.3545813   -3.0832184 
H     7.4664525    4.4185702   -2.9329150 
H     6.0219277    3.6724387   -3.6756745 
H     5.9521625    5.8254239   -0.5460230 
H     7.5037341    4.9468580   -0.4211778 
H     6.1195580    4.4771745    0.6135512 
H     7.7320489    2.5917601   -1.3380618 
H     6.3102509    1.7047152   -1.9574509 
H     6.4451782    2.0915163   -0.2167863 
H     1.9177840   -1.5763481   -1.4396312 
H     2.9473808   -5.0281442    0.3502544 
H     4.7278670   -4.9971274    0.2147627 
H     3.7712141   -5.9404664   -0.9523006 
H     2.2888034   -3.1322316   -2.8883906 
H     2.4062484   -4.8969277   -2.6899798 
H     1.4864437   -3.9298851   -1.5013357 
H     4.8332078   -2.8713100   -2.9353853 
H     4.9280872   -4.6610310   -2.8802009 
H     5.8402926   -3.6766524   -1.7003530 
H     5.4187597   -3.0174104    0.6391352 
H     3.6684532    0.7782282    1.7128378 
H     8.0150612   -0.5992424    2.2279333 
H     7.3877591   -1.6222925    0.9040108 
H     7.1262701    0.1420817    0.8625890 
H     6.1701869   -3.0694892    2.6545492 
H     5.0163306   -2.3118947    3.7851342 
H     6.7707027   -2.0141533    3.9566002 
H     5.6275660    1.2672334    2.6036403 
H     4.6637577    0.2775264    3.7401589 
H     6.4356848    0.4136443    3.9399208 
