200
Energy =
C     0.7505730   -2.9454250    2.1782463 
C     0.7292268   -1.9826983    3.2357542 
C    -0.4464808   -1.2699922    3.5581587 
H     1.6764042   -1.6540666    3.6820371 
Pd    0.1214481   -0.9794231    1.3652487 
P    -0.3486005    1.2738941    1.0138565 
P     0.1110780   -1.4813154   -0.9101788 
H    -0.1594474   -3.5348180    2.0044811 
H    -1.4039388   -1.6866818    3.2053319 
C     4.3566210   -4.6931952    0.5931399 
C     3.1145626   -5.3148340    0.4014708 
C     1.9477985   -4.7450833    0.9259803 
C     1.9981856   -3.5358029    1.6546796 
C     3.2586073   -2.9170673    1.8372719 
C     4.4223263   -3.4914452    1.3186340 
H     5.2681250   -5.1404057    0.1835450 
H     3.0513818   -6.2527587   -0.1587789 
H     0.9819688   -5.2364631    0.7659603 
H     3.3284204   -1.9679440    2.3799467 
H     5.3871144   -2.9984081    1.4774449 
C    -0.8619532    1.7785993    6.5599492 
C    -1.8396584    1.6122723    5.5669714 
C    -1.6951794    0.6129375    4.6013009 
C    -0.5642251   -0.2355773    4.5981542 
C     0.4057101   -0.0661260    5.6115966 
C     0.2546143    0.9289459    6.5833192 
H    -0.9748511    2.5582895    7.3203039 
H    -2.7162672    2.2669634    5.5415609 
H    -2.4547894    0.5007060    3.8217771 
H     1.2676792   -0.7386175    5.6623910 
H     1.0056130    1.0338897    7.3728717 
C    -0.5398663    6.5364850    2.9268131 
C    -0.3733478    5.6326738    4.1766220 
C    -1.7698367    5.3105057    4.7670790 
C     0.4368675    6.4059001    5.2373628 
C     0.3206538    4.3230096    3.7518873 
C    -0.3050326    3.4922453    2.7997565 
C     1.5747471    3.9255356    4.2475607 
C     2.2139652    2.7294099    3.8498169 
C     3.6230276    2.3818066    4.3695906 
C     4.6418981    3.2558580    3.5906511 
C     3.7447433    2.6766222    5.8839729 
C     3.9687096    0.8935120    4.1405261 
C     1.5529871    1.9199379    2.9149168 
C     0.3116356    2.3108902    2.3725199 
C    -2.1131851    1.6819633    0.7931022 
C    -2.5177788    2.9370267    0.2970159 
C    -3.8809723    3.2366045    0.1653766 
C    -4.3749038    4.5958251   -0.3645426 
C    -3.2042204    5.5067518   -0.7904615 
C    -5.1792005    5.3096912    0.7520322 
C    -5.2841150    4.3609336   -1.5976756 
C    -4.8181389    2.2437563    0.5362175 
C    -4.4434558    0.9746454    1.0088613 
C    -3.0648262    0.7093508    1.1269227 
C    -5.4589002   -0.1196481    1.3933344 
C    -5.2278162   -1.3623649    0.4966145 
C    -5.2436046   -0.5137169    2.8775918 
C    -6.9174794    0.3495039    1.2170205 
C     0.5048276    1.9534467   -0.4792560 
C     1.6320757    2.7869722   -0.3305966 
C     2.3116183    3.2684107   -1.4559573 
C     1.8785265    2.9307248   -2.7423386 
C     0.0507676    1.6029176   -1.7752658 
C     0.7448678    2.1190069   -2.8972109 
C    -1.1670894    0.7796240   -2.0485578 
C    -2.2453751    1.4289353   -2.6987676 
O    -2.0927138    2.7736630   -2.9286681 
C    -2.4433324    3.2958023   -4.2251757 
C    -1.5840035    2.7086019   -5.3482724 
C    -0.0761421    2.7708645   -5.0889957 
O     0.2950511    1.7475329   -4.1375091 
C    -3.4121304    0.7326084   -3.0473948 
C    -3.4979838   -0.6366794   -2.7775327 
C    -2.4386172   -1.3072265   -2.1544429 
C    -1.2727828   -0.6091119   -1.7810464 
C     1.6078086   -1.0511209   -1.8576660 
C     1.5854562   -1.0974206   -3.2637061 
C     2.7361098   -0.7716822   -3.9982365 
C     2.7681898   -0.8036404   -5.5377805 
C     3.8026782   -1.8597602   -6.0030373 
C     3.1763893    0.5965231   -6.0630136 
C     1.3897150   -1.1616335   -6.1320403 
C     3.8850930   -0.3867081   -3.2771440 
C     3.9263703   -0.3018519   -1.8721523 
C     2.7631178   -0.6556314   -1.1654295 
C     5.2189395    0.1413289   -1.1600120 
C     5.7764285    1.4297880   -1.8143513 
C     6.2619942   -0.9990382   -1.2869710 
C     4.9703767    0.4336387    0.3352227 
C    -0.2115666   -3.2633639   -1.1990444 
C     0.5709464   -4.0377741   -2.0723134 
C     0.2959035   -5.4044291   -2.2556839 
C     1.0945487   -6.2587244   -3.2602063 
C     2.4062828   -5.5633094   -3.6879322 
C     0.2063078   -6.4697897   -4.5152229 
C     1.4508643   -7.6369663   -2.6506262 
C    -0.7749326   -5.9690461   -1.5295715 
C    -1.5631866   -5.2249999   -0.6308583 
C    -1.2580906   -3.8598826   -0.4753978 
C    -2.7359039   -5.8333973    0.1629360 
C    -4.0566493   -5.2001242   -0.3474311 
C    -2.8221545   -7.3643493   -0.0065038 
C    -2.5601086   -5.5179889    1.6708741 
H    -1.0296014    7.4869230    3.2044816 
H    -1.1604607    6.0502492    2.1538759 
H     0.4413189    6.7703308    2.4780013 
H    -2.2890904    6.2446297    5.0460062 
H    -2.4076297    4.7728154    4.0436644 
H    -1.6760195    4.6843545    5.6705298 
H    -0.1018043    7.3276026    5.5172373 
H     1.4300925    6.7036665    4.8577801 
H     0.5789783    5.8089834    6.1556058 
H    -1.2783878    3.7709121    2.3868035 
H     2.0818109    4.5666471    4.9713984 
H     5.6720851    3.0459532    3.9309165 
H     4.5862772    3.0487127    2.5071695 
H     4.4403975    4.3303758    3.7441168 
H     3.6089761    3.7471896    6.1121306 
H     2.9944835    2.1062359    6.4571086 
H     4.7482571    2.3898174    6.2438142 
H     3.2313924    0.2342748    4.6308810 
H     4.0076318    0.6369206    3.0686759 
H     4.9617895    0.6704521    4.5667032 
H     2.0007546    0.9806005    2.5729722 
H    -1.7553955    3.6563731   -0.0095925 
H    -2.5880207    5.0280372   -1.5706108 
H    -2.5504988    5.7573946    0.0637535 
H    -3.5988858    6.4553187   -1.1935944 
H    -6.0530577    4.7145167    1.0694858 
H    -4.5447387    5.4832019    1.6394935 
H    -5.5474905    6.2876192    0.3939155 
H    -4.7279082    3.8255231   -2.3856291 
H    -5.6305811    5.3262152   -2.0075275 
H    -6.1772565    3.7647132   -1.3437900 
H    -5.8813472    2.4759856    0.4366205 
H    -2.7142985   -0.2728184    1.4642546 
H    -5.3924712   -1.1158129   -0.5656866 
H    -5.9207652   -2.1748927    0.7791677 
H    -4.1968654   -1.7455220    0.5924165 
H    -5.3544830    0.3623564    3.5401301 
H    -5.9835918   -1.2745475    3.1829266 
H    -4.2394765   -0.9423547    3.0440367 
H    -7.1465830    1.2198091    1.8568240 
H    -7.6069225   -0.4641889    1.5008731 
H    -7.1345193    0.6205194    0.1687813 
H     1.9746519    3.0708258    0.6676032 
H     3.1870570    3.9127159   -1.3258912 
H     2.4135843    3.2847115   -3.6285627 
H    -3.5191656    3.1439871   -4.4358931 
H    -2.2742998    4.3803710   -4.1240362 
H    -1.8581547    1.6532095   -5.5279546 
H    -1.8145407    3.2634927   -6.2771564 
H     0.2312763    3.7649267   -4.7145935 
H     0.4787650    2.5612613   -6.0197280 
H    -4.2425712    1.2582470   -3.5266686 
H    -4.3985700   -1.1916563   -3.0597164 
H    -2.5175983   -2.3820814   -1.9761810 
H     0.6561641   -1.3650227   -3.7716061 
H     3.8483893   -1.8918091   -7.1063554 
H     4.8154109   -1.6296267   -5.6289932 
H     3.5266491   -2.8650389   -5.6390205 
H     4.1890316    0.8818134   -5.7298815 
H     3.1708207    0.6088525   -7.1675670 
H     2.4679170    1.3584573   -5.6970570 
H     0.6197388   -0.4347971   -5.8197905 
H     1.4458252   -1.1526898   -7.2343948 
H     1.0621452   -2.1711251   -5.8250192 
H     4.7874126   -0.1272898   -3.8401384 
H     2.7292212   -0.6132547   -0.0733340 
H     6.0491721    1.2740265   -2.8718800 
H     5.0325172    2.2433558   -1.7692580 
H     6.6869281    1.7599980   -1.2837087 
H     7.2010728   -0.7235843   -0.7736216 
H     6.4988070   -1.2048221   -2.3455148 
H     5.8765318   -1.9307805   -0.8384094 
H     4.6559351   -0.4720908    0.8799663 
H     4.1925879    1.2066482    0.4683588 
H     5.8986536    0.7988737    0.8075356 
H     1.4020823   -3.5677039   -2.5996334 
H     2.2161281   -4.6228152   -4.2341067 
H     2.9742233   -6.2258135   -4.3633860 
H     3.0447607   -5.3319384   -2.8169662 
H     0.7396481   -7.0798368   -5.2662803 
H    -0.7334439   -6.9881934   -4.2558322 
H    -0.0547492   -5.5009792   -4.9766360 
H     2.0506900   -7.5228778   -1.7311666 
H     2.0410737   -8.2264673   -3.3736739 
H     0.5533375   -8.2277898   -2.4009438 
H    -0.9963381   -7.0290524   -1.6706389 
H    -1.8411873   -3.2451592    0.2207566 
H    -4.2046013   -5.4163639   -1.4198787 
H    -4.9195406   -5.6067126    0.2098781 
H    -4.0553391   -4.1039595   -0.2176378 
H    -3.6590489   -7.7582051    0.5954051 
H    -1.8978266   -7.8639572    0.3333935 
H    -3.0072414   -7.6505286   -1.0565385 
H    -2.5794819   -4.4314120    1.8698239 
H    -1.6038644   -5.9203235    2.0496210 
H    -3.3798539   -5.9729118    2.2541634 
