200
Energy =
C     0.8097775   -2.8739785    2.2307372 
C     0.5628681   -1.9049401    3.2590623 
C    -0.7309697   -1.3581147    3.4170413 
H     1.4043386   -1.4565576    3.8012978 
Pd    0.0785862   -0.9991121    1.3178933 
P    -0.4716860    1.2326584    0.9763007 
P     0.2429282   -1.4836486   -0.9550713 
H    -0.0041364   -3.5689544    1.9838418 
H    -1.5620023   -1.9333476    2.9776272 
C     4.7075987   -4.1539900    0.9132850 
C     4.5828735   -3.0006235    1.7059165 
C     3.3247009   -2.5794143    2.1464621 
C     2.1573337   -3.3109850    1.8185763 
C     2.2992935   -4.4751495    1.0287730 
C     3.5594600   -4.8867999    0.5787957 
H     5.6929053   -4.4787532    0.5635072 
H     5.4729206   -2.4230450    1.9768189 
H     3.2489354   -1.6628465    2.7406039 
H     1.4091104   -5.0536420    0.7588923 
H     3.6444566   -5.7889642   -0.0350376 
C    -2.1056894    1.7492409    6.0415016 
C    -2.9861626    1.1130182    5.1537219 
C    -2.5159797    0.0987850    4.3151976 
C    -1.1579486   -0.2985017    4.3390529 
C    -0.2828866    0.3563418    5.2357476 
C    -0.7542167    1.3689858    6.0762800 
H    -2.4719735    2.5367137    6.7078105 
H    -4.0409248    1.4047562    5.1169330 
H    -3.2055375   -0.3952017    3.6234396 
H     0.7714062    0.0704897    5.2817217 
H    -0.0628338    1.8681847    6.7621725 
C    -0.2511121    6.5987790    3.8150139 
C    -0.8699577    5.3391758    4.4773563 
C    -2.3738680    5.2763801    4.1268307 
C    -0.7336639    5.4531105    6.0153928 
C    -0.1099380    4.1076139    3.9467753 
C    -0.6442264    3.2995449    2.9255603 
C     1.1780238    3.7977073    4.4237596 
C     1.9301812    2.7013732    3.9543867 
C     3.3282164    2.4106676    4.5356357 
C     4.3185416    3.4571004    3.9612574 
C     3.3033622    2.5104271    6.0811013 
C     3.8256308    0.9981407    4.1603806 
C     1.3697217    1.9223016    2.9285305 
C     0.1013863    2.2356903    2.3987134 
C    -2.2323294    1.5978756    0.6797249 
C    -2.6510189    2.8705797    0.2540190 
C    -4.0134356    3.1259597    0.0283270 
C    -4.5236550    4.4976042   -0.4513227 
C    -5.4397215    5.1082561    0.6394467 
C    -5.3245724    4.3065280   -1.7647440 
C    -3.3623743    5.4749109   -0.7313787 
C    -4.9234562    2.0688455    0.2368127 
C    -4.5278893    0.7730273    0.6227624 
C    -3.1581229    0.5550223    0.8434119 
C    -5.5738420   -0.3424248    0.8113588 
C    -4.9084780   -1.7281806    0.9605568 
C    -6.3941302   -0.0351312    2.0908549 
C    -6.5221932   -0.3966612   -0.4125322 
C     0.4166557    1.9674403   -0.4671659 
C     1.4958017    2.8535036   -0.2777259 
C     2.1844611    3.3722573   -1.3810641 
C     1.8021391    3.0308646   -2.6826584 
C     0.0209773    1.6031455   -1.7777054 
C     0.7137453    2.1666525   -2.8763126 
C    -1.1419016    0.7150363   -2.0885898 
C    -2.2509801    1.3108242   -2.7368509 
O    -2.2013902    2.6645431   -2.9459110 
C    -2.3278962    3.1737522   -4.2933687 
C    -1.0048117    3.8082062   -4.7315171 
C     0.0843755    2.8048193   -5.1215265 
O     0.2851094    1.7853344   -4.1233886 
C    -3.3750393    0.5542000   -3.1013496 
C    -3.3829944   -0.8236238   -2.8600411 
C    -2.2876532   -1.4417861   -2.2435091 
C    -1.1675333   -0.6833228   -1.8487339 
C     1.7377758   -0.9576786   -1.8544437 
C     1.7590995   -0.9919377   -3.2610225 
C     2.9119859   -0.5990716   -3.9583065 
C     2.9971423   -0.6308012   -5.4959790 
C     1.6547027   -1.0439638   -6.1350886 
C     4.0873539   -1.6480321   -5.9198712 
C     3.3711298    0.7802377   -6.0165514 
C     4.0151183   -0.1555086   -3.2000671 
C     4.0095610   -0.0796099   -1.7939953 
C     2.8483696   -0.5061321   -1.1243395 
C     5.2535320    0.4264245   -1.0387442 
C     6.3389662   -0.6798501   -1.0934110 
C     4.9285864    0.7409174    0.4372008 
C     5.7950379    1.7197100   -1.6964800 
C     0.0474065   -3.2842816   -1.2448627 
C    -0.9587726   -3.9525062   -0.5177178 
C    -1.1280246   -5.3412233   -0.6318053 
C    -2.1824521   -6.1143167    0.1831652 
C    -3.0496801   -5.1748632    1.0477045 
C    -1.4510270   -7.1091144    1.1217573 
C    -3.1152523   -6.8912560   -0.7800904 
C    -0.2600205   -6.0340327   -1.5034974 
C     0.7594823   -5.3986702   -2.2367398 
C     0.9071051   -4.0053720   -2.0869668 
C     1.6514025   -6.2122130   -3.1955745 
C     2.2083335   -7.4685637   -2.4807104 
C     0.7839174   -6.6521363   -4.4043148 
C     2.8441291   -5.3804513   -3.7153954 
H    -0.7646682    7.5116678    4.1667998 
H    -0.3451736    6.5487554    2.7157276 
H     0.8213799    6.6904379    4.0613094 
H    -2.8968545    6.1376830    4.5767099 
H    -2.5476117    5.3209016    3.0372940 
H    -2.8383443    4.3514222    4.5114016 
H    -1.3110604    6.3201041    6.3808687 
H     0.3129347    5.6013903    6.3313419 
H    -1.1169235    4.5475132    6.5152315 
H    -1.6412819    3.4991571    2.5299744 
H     1.6108541    4.4301452    5.2039338 
H     5.3342040    3.2918657    4.3637889 
H     4.3662122    3.3847303    2.8601077 
H     4.0078366    4.4835252    4.2229164 
H     3.0370827    3.5220108    6.4303428 
H     2.5772739    1.7977097    6.5110299 
H     4.3004536    2.2724846    6.4910722 
H     3.1335784    0.2186629    4.5274323 
H     3.9430352    0.8744703    3.0717247 
H     4.8110697    0.8134951    4.6210376 
H     1.9135139    1.0642793    2.5183881 
H    -1.9007653    3.6430523    0.0718460 
H    -4.8826375    5.2533305    1.5819785 
H    -6.3055480    4.4576842    0.8532516 
H    -5.8262346    6.0897500    0.3112787 
H    -4.6903994    3.8245941   -2.5280010 
H    -6.2176957    3.6761442   -1.6145376 
H    -5.6652195    5.2831786   -2.1521009 
H    -2.7779334    5.6893410    0.1813466 
H    -3.7644563    6.4346802   -1.0992069 
H    -2.6771232    5.0717311   -1.4973106 
H    -5.9884901    2.2599608    0.0696290 
H    -2.7812397   -0.4333673    1.1193336 
H    -4.2713058   -1.9610285    0.0892458 
H    -5.6835057   -2.5098634    1.0381737 
H    -4.2861052   -1.7963258    1.8707641 
H    -6.9084153    0.9383538    2.0105159 
H    -7.1592408   -0.8145320    2.2577308 
H    -5.7377205    0.0010053    2.9786146 
H    -7.0911353    0.5401873   -0.5368917 
H    -7.2543035   -1.2142583   -0.2897745 
H    -5.9511517   -0.5757534   -1.3396407 
H     1.7913302    3.1496405    0.7319545 
H     3.0246993    4.0561062   -1.2229739 
H     2.3450073    3.4298360   -3.5440277 
H    -2.6357332    2.3611617   -4.9773598 
H    -3.1261252    3.9356431   -4.2745923 
H    -1.1897786    4.4622012   -5.6045354 
H    -0.6488815    4.4592894   -3.9125398 
H     1.0322009    3.3295409   -5.3480609 
H    -0.2047664    2.2365109   -6.0206209 
H    -4.2314952    1.0511193   -3.5666991 
H    -4.2490113   -1.4249332   -3.1553204 
H    -2.3005200   -2.5228906   -2.0836292 
H     0.8614853   -1.3067727   -3.7980336 
H     1.7448340   -1.0275068   -7.2350639 
H     1.3608752   -2.0677970   -5.8421524 
H     0.8445798   -0.3527392   -5.8443328 
H     3.8395778   -2.6611749   -5.5576027 
H     4.1707436   -1.6846983   -7.0208836 
H     5.0770361   -1.3751042   -5.5141194 
H     4.3565107    1.1089914   -5.6442719 
H     3.4120386    0.7829903   -7.1203431 
H     2.6189853    1.5186364   -5.6922966 
H     4.9184877    0.1564876   -3.7336479 
H     2.7824322   -0.4810940   -0.0330406 
H     5.9678902   -1.6116476   -0.6325778 
H     6.6226845   -0.9052449   -2.1363528 
H     7.2475470   -0.3579429   -0.5527189 
H     5.8225472    1.1473284    0.9413802 
H     4.6209035   -0.1639322    0.9864860 
H     4.1196191    1.4888635    0.5180844 
H     5.0193584    2.5046471   -1.7116188 
H     6.1313460    1.5505422   -2.7334557 
H     6.6623768    2.0980853   -1.1272426 
H    -1.5983981   -3.3710848    0.1534713 
H    -2.4439142   -4.6184048    1.7860797 
H    -3.7913019   -5.7670132    1.6105367 
H    -3.6020703   -4.4444265    0.4315752 
H    -2.1820654   -7.6764902    1.7248895 
H    -0.8456882   -7.8355619    0.5528473 
H    -0.7762681   -6.5720091    1.8123846 
H    -3.6413045   -6.1984412   -1.4603368 
H    -3.8723374   -7.4545619   -0.2063199 
H    -2.5555986   -7.6148712   -1.3970537 
H    -0.3807676   -7.1172442   -1.6056050 
H     1.7014165   -3.4763331   -2.6154383 
H     1.4052376   -8.1449935   -2.1421956 
H     2.8532641   -8.0406984   -3.1704224 
H     2.8114144   -7.1884859   -1.5998923 
H     1.3887034   -7.2405707   -5.1174083 
H     0.3786257   -5.7731340   -4.9357804 
H    -0.0670926   -7.2766452   -4.0806988 
H     3.4718043   -5.0073927   -2.8865948 
H     2.5117220   -4.5135951   -4.3130449 
H     3.4773505   -6.0068397   -4.3667899 
