206
Energy =
C     0.2634996    1.6026188   -3.4905152 
C    -0.9268052    0.8440124   -3.7224583 
C    -2.1061910    1.1357714   -2.9989712 
H    -0.8807538   -0.0605835   -4.3415955 
Pd   -0.3793708    0.6154832   -1.6061716 
P    -1.5255771   -0.6846994   -0.0384980 
P     1.4318347    1.0325720   -0.2081839 
H     0.1327260    2.6564724   -3.2097716 
H    -2.1625282    2.1347810   -2.5385284 
C     4.0859210    0.7335112   -5.2761238 
C     3.7564745    2.0395403   -4.8859218 
C     2.5154117    2.3067327   -4.2967309 
C     1.5716799    1.2767242   -4.0902093 
C     1.9226206   -0.0382381   -4.4763554 
C     3.1618092   -0.3041061   -5.0673355 
H     5.0550797    0.5226603   -5.7400016 
H     4.4646032    2.8586135   -5.0450076 
H     2.2684210    3.3276312   -3.9924120 
H     1.2231238   -0.8624688   -4.3000907 
H     3.4123054   -1.3275428   -5.3642166 
C    -5.9315905   -0.8020101   -3.1917596 
C    -5.7289502    0.3059496   -2.3550956 
C    -4.4733177    0.9180903   -2.3005494 
C    -3.3940754    0.4355903   -3.0780413 
C    -3.6102141   -0.6935864   -3.9002056 
C    -4.8655290   -1.3050560   -3.9544905 
H    -6.9187797   -1.2704166   -3.2547964 
H    -6.5522875    0.6975826   -1.7488091 
H    -4.3181926    1.7820897   -1.6462071 
H    -2.7945359   -1.0918236   -4.5098497 
H    -5.0155264   -2.1771274   -4.5985517 
C    -6.1007625   -1.4124835    3.0566177 
C    -5.3313024   -0.2632109    3.7566223 
C    -6.3642683    0.7054968    4.3692349 
C    -4.4664849   -0.8432357    4.9024091 
C    -4.4203660    0.4293928    2.7221282 
C    -3.4682576   -0.3319803    2.0106145 
C    -4.5108098    1.8021720    2.4316379 
C    -3.6980276    2.4406445    1.4680046 
C    -3.8300701    3.9555756    1.2225344 
C    -2.7691894    4.4677613    0.2246943 
C    -5.2394397    4.2517942    0.6485554 
C    -3.6430173    4.7153275    2.5604483 
C    -2.8033517    1.6421465    0.7448223 
C    -2.6983642    0.2606812    0.9985859 
C    -2.4156228   -2.0173472   -0.9387339 
C    -1.7339217   -2.5771236   -2.0426439 
C    -2.2661812   -3.6733848   -2.7359100 
C    -1.5563266   -4.3203533   -3.9417350 
C    -2.5315831   -4.4128674   -5.1427875 
C    -1.0962029   -5.7455554   -3.5383209 
C    -0.3219078   -3.5111055   -4.3904058 
C    -3.4933333   -4.2041509   -2.2786892 
C    -4.2008732   -3.6657307   -1.1917268 
C    -3.6488043   -2.5428124   -0.5371946 
C    -5.4940363   -4.3028822   -0.6448879 
C    -6.6049494   -3.2348422   -0.4993763 
C    -6.0228246   -5.4292286   -1.5571934 
C    -5.1718254   -4.9063975    0.7486305 
C    -0.4625763   -1.6186586    1.1447515 
C    -0.3760567   -3.0232271    1.0692728 
C     0.4518800   -3.7169126    1.9578121 
C     1.1979775   -3.0338173    2.9232634 
C     0.2875639   -0.9055453    2.1097305 
C     1.1150219   -1.6323129    3.0057585 
C     0.1954920    0.5727746    2.3135127 
C    -0.4213842    1.0103865    3.5170071 
O    -0.9300548    0.0258843    4.3115393 
C    -1.1487038    0.3117369    5.7063177 
C     0.1628173    0.5036540    6.4867537 
C     0.7504958   -0.7896666    7.0792535 
C     1.1541392   -1.8938890    6.0855610 
C     2.2857285   -1.5162993    5.1159152 
O     1.8081119   -0.8833156    3.9129522 
C    -0.4904673    2.3786592    3.8331384 
C     0.0776563    3.3158313    2.9655471 
C     0.7000777    2.9087783    1.7818024 
C     0.7544399    1.5410229    1.4416003 
C     2.4247055    2.4706683   -0.7774492 
C     1.7241040    3.6232684   -1.1876864 
C     2.4094933    4.7680467   -1.6252245 
C     1.6787364    6.0552467   -2.0561689 
C     0.1447431    5.8950215   -2.0045047 
C     2.0824753    6.4227073   -3.5069626 
C     2.0842905    7.2046085   -1.0974194 
C     3.8185378    4.7115895   -1.6537393 
C     4.5485981    3.5727743   -1.2653974 
C     3.8267416    2.4439774   -0.8309234 
C     6.0899207    3.5916369   -1.3103513 
C     6.5581638    3.7396264   -2.7801512 
C     6.6111690    4.7893508   -0.4749178 
C     6.6986965    2.2976563   -0.7300088 
C     2.6108845   -0.3267881    0.0993396 
C     2.5844936   -1.4509124   -0.7367891 
C     3.5236909   -2.4908612   -0.5703130 
C     3.4652210   -3.7323795   -1.4823597 
C     3.5391593   -3.2820707   -2.9618948 
C     4.6245601   -4.7137651   -1.2136560 
C     2.1281400   -4.4744442   -1.2329801 
C     4.4842836   -2.3398650    0.4424941 
C     4.5342531   -1.2187285    1.3025659 
C     3.5698099   -0.2160870    1.1282062 
C     5.6470393   -1.1246079    2.3644540 
C     5.6293558   -2.3917331    3.2557298 
C     5.4740265    0.1159800    3.2653982 
C     7.0176344   -1.0303515    1.6441409 
H    -6.7039947   -1.0264674    2.2165509 
H    -5.4159064   -2.1813879    2.6605258 
H    -6.7811400   -1.9090708    3.7709329 
H    -7.0303044    1.1335019    3.5994685 
H    -5.8774145    1.5362367    4.9100603 
H    -6.9960656    0.1631430    5.0936461 
H    -5.0964055   -1.4206983    5.6022814 
H    -3.6730105   -1.5092206    4.5223938 
H    -3.9854817   -0.0277197    5.4672348 
H    -3.3228545   -1.3906609    2.2476865 
H    -5.2358745    2.4092110    2.9789723 
H    -2.8680021    5.5598670    0.1007537 
H    -2.8887842    4.0127147   -0.7752218 
H    -1.7462549    4.2547856    0.5816208 
H    -5.3925602    3.7240432   -0.3097162 
H    -5.3622661    5.3347984    0.4684318 
H    -6.0346957    3.9310920    1.3435423 
H    -4.4097412    4.4335955    3.3022570 
H    -2.6515632    4.4987927    2.9934659 
H    -3.7225941    5.8045149    2.3951153 
H    -2.1508886    2.0758871   -0.0183126 
H    -0.7790295   -2.1333381   -2.3453050 
H    -2.0284146   -4.8866250   -6.0039465 
H    -2.8704699   -3.4096421   -5.4553029 
H    -3.4242631   -5.0157560   -4.9055790 
H    -0.5797075   -6.2367925   -4.3823984 
H    -0.4007597   -5.7034446   -2.6824408 
H    -1.9536058   -6.3781061   -3.2502330 
H     0.4434027   -3.4493867   -3.5993951 
H    -0.6000294   -2.4838872   -4.6869917 
H     0.1456908   -3.9944685   -5.2650823 
H    -3.9062147   -5.0722826   -2.7976568 
H    -4.1806448   -2.0896264    0.3025437 
H    -7.5034797   -3.6852309   -0.0419718 
H    -6.8850067   -2.8277493   -1.4842561 
H    -6.2910858   -2.3917609    0.1376641 
H    -6.2388301   -5.0587066   -2.5750533 
H    -5.3086493   -6.2676899   -1.6353252 
H    -6.9610499   -5.8336159   -1.1400769 
H    -6.0722643   -5.3786418    1.1806949 
H    -4.3809502   -5.6727958    0.6702810 
H    -4.8233989   -4.1304054    1.4520820 
H    -0.9611791   -3.5731035    0.3285743 
H     0.5120234   -4.8088420    1.9041134 
H     1.8350030   -3.5946132    3.6107794 
H    -1.7059078   -0.5635262    6.0753316 
H    -1.8156266    1.1879850    5.8068534 
H     0.8964272    1.0044385    5.8277250 
H    -0.0304090    1.2058642    7.3184354 
H     1.6359532   -0.5229028    7.6878262 
H     0.0154232   -1.2159140    7.7889231 
H     1.4857921   -2.7730603    6.6680699 
H     0.2830607   -2.2312934    5.4929325 
H     2.9663736   -0.7719820    5.5606765 
H     2.8978549   -2.3984730    4.8558281 
H    -0.9702570    2.7145105    4.7549241 
H     0.0440170    4.3799656    3.2215507 
H     1.1619956    3.6571540    1.1349155 
H     0.6306099    3.6143341   -1.1571383 
H    -0.3388453    6.8322661   -2.3290425 
H    -0.2061979    5.0915194   -2.6776022 
H    -0.2116636    5.6726037   -0.9838118 
H     1.5801461    7.3558133   -3.8178146 
H     1.7888939    5.6260801   -4.2134503 
H     3.1704032    6.5792730   -3.6032348 
H     1.5729050    8.1410751   -1.3833934 
H     3.1716860    7.3909745   -1.1240077 
H     1.8065558    6.9619124   -0.0564484 
H     4.3690103    5.5944589   -1.9951486 
H     4.3540760    1.5366547   -0.5330112 
H     6.1497986    4.6530133   -3.2469449 
H     7.6602764    3.7987243   -2.8262833 
H     6.2325224    2.8723935   -3.3792230 
H     6.2620778    5.7557689   -0.8772775 
H     7.7155156    4.8043585   -0.4817143 
H     6.2724083    4.7138674    0.5733285 
H     7.8001473    2.3559504   -0.7659781 
H     6.3931318    1.4043910   -1.3025543 
H     6.4048155    2.1510839    0.3243545 
H     1.8174581   -1.5076487   -1.5175288 
H     4.4789038   -2.7390230   -3.1622128 
H     2.7047443   -2.6117345   -3.2225452 
H     3.4917660   -4.1586782   -3.6325502 
H     4.6012707   -5.1036668   -0.1807869 
H     4.5434570   -5.5774419   -1.8961422 
H     5.6077144   -4.2416007   -1.3865169 
H     2.0750031   -4.8415410   -0.1944643 
H     2.0378012   -5.3391554   -1.9146189 
H     1.2581661   -3.8154988   -1.3950027 
H     5.2319632   -3.1247709    0.5780843 
H     3.5447075    0.6580646    1.7829944 
H     6.4112068   -2.3228894    4.0326885 
H     4.6530475   -2.5048118    3.7556246 
H     5.8190507   -3.3083127    2.6716109 
H     4.4939025    0.1123747    3.7727290 
H     5.5582124    1.0533509    2.6874590 
H     6.2625421    0.1305776    4.0374426 
H     7.2069204   -1.9191482    1.0175642 
H     7.0592829   -0.1405881    0.9932488 
H     7.8343571   -0.9573047    2.3845192 
