197
Energy =
C    -1.7684594    2.6548739    1.9508164 
C    -2.9351790    1.9077456    1.6109581 
C    -3.1100801    0.5900721    2.0943193 
H    -3.6166878    2.2907927    0.8397699 
Pd   -1.1823898    0.7770254    0.8955661 
P    -1.0102285   -1.3295276   -0.1045322 
P     1.0278374    1.2955315    0.3906119 
H    -1.3187906    2.4532025    2.9335233 
H    -2.5028147    0.2926262    2.9647046 
C    -0.7780788    6.5278663    0.3517134 
C    -0.4445713    6.1897623    1.6708072 
C    -0.7706876    4.9267055    2.1767440 
C    -1.4447719    3.9772950    1.3797295 
C    -1.7799434    4.3327120    0.0533104 
C    -1.4497917    5.5932254   -0.4544976 
H    -0.5175134    7.5130824   -0.0488976 
H     0.0732208    6.9094200    2.3122590 
H    -0.5009490    4.6669160    3.2037059 
H    -2.2861992    3.6039767   -0.5903055 
H    -1.7113073    5.8489327   -1.4859154 
C    -6.4720423   -1.9833737    1.3600468 
C    -5.2593359   -2.5081301    1.8329512 
C    -4.1741214   -1.6613717    2.0742276 
C    -4.2717513   -0.2729010    1.8284089 
C    -5.5018744    0.2453469    1.3653910 
C    -6.5923573   -0.6023287    1.1413222 
H    -7.3240984   -2.6456652    1.1755115 
H    -5.1572833   -3.5823136    2.0129578 
H    -3.2267728   -2.0792475    2.4324170 
H    -5.6193430    1.3235032    1.2161009 
H    -7.5455879   -0.1803652    0.8069618 
C     0.8464271   -3.9582541    5.6926901 
C     0.1922418   -2.8647454    4.8240043 
C     0.9729599   -1.5407018    5.0301554 
C    -1.2758543   -2.6735515    5.2867704 
C     0.1942927   -3.2310083    3.3271675 
C    -0.3139033   -2.3042130    2.3961991 
C     0.6719617   -4.4532978    2.8260587 
C     0.6707291   -4.7747839    1.4474341 
C     1.2234759   -6.1338353    0.9771505 
C     0.3947401   -7.2691484    1.6308413 
C     1.1477675   -6.2869685   -0.5566771 
C     2.7098127   -6.2523136    1.4022663 
C     0.1640845   -3.8235229    0.5504773 
C    -0.3378587   -2.5955108    1.0269569 
C    -2.5991701   -1.9572557   -0.7652328 
C    -3.4626130   -1.0126273   -1.3556134 
C    -4.6093214   -1.4279831   -2.0486878 
C    -5.4905912   -0.4359828   -2.8329726 
C    -6.9931285   -0.7460724   -2.6285462 
C    -5.1366354   -0.5854125   -4.3371488 
C    -5.2334463    1.0260506   -2.4051027 
C    -4.8855916   -2.8139877   -2.0867477 
C    -4.0637691   -3.7754711   -1.4735216 
C    -2.9043471   -3.3226833   -0.8114746 
C    -4.3539295   -5.2886226   -1.5321564 
C    -5.6625849   -5.6041249   -2.2854267 
C    -4.4704493   -5.8508075   -0.0923319 
C    -3.1812875   -5.9918568   -2.2652054 
C     0.0911582   -1.3938793   -1.5917627 
C    -0.4920867   -1.5089669   -2.8687943 
C     0.3040704   -1.5533684   -4.0189494 
C     1.6946365   -1.5031556   -3.9069457 
C     1.5052449   -1.3298210   -1.4598665 
C     2.2840950   -1.4197119   -2.6374114 
C     2.2239553   -1.2491755   -0.1528831 
C     3.0947943   -2.3146021    0.1808420 
O     3.2298648   -3.3768796   -0.6937509 
C     4.4742836   -3.3964883   -1.4243168 
C     4.2997469   -2.6720964   -2.7583974 
O     3.6629306   -1.3963634   -2.5393066 
C     3.8051021   -2.3401173    1.3889251 
C     3.7098772   -1.2563289    2.2630905 
C     2.9011370   -0.1632098    1.9336510 
C     2.1453344   -0.1473550    0.7448308 
C     1.3731986    1.7452659   -1.3453292 
C     2.7067975    1.7807793   -1.8021736 
C     2.9900820    2.1362096   -3.1270218 
C     4.4281945    2.1867148   -3.6767969 
C     5.4678264    1.8168814   -2.5978039 
C     4.5593099    1.1746209   -4.8442552 
C     4.7285377    3.6194382   -4.1863573 
C     1.8999836    2.4463040   -3.9739507 
C     0.5615260    2.4138762   -3.5488585 
C     0.3134914    2.0558631   -2.2062380 
C    -0.6196080    2.7622755   -4.4782053 
C    -0.1561710    3.1138905   -5.9068252 
C    -1.3760851    3.9814195   -3.8926802 
C    -1.5892108    1.5570880   -4.5615990 
C     1.7014178    2.6601895    1.4164325 
C     2.3617141    3.7596102    0.8420396 
C     2.9182563    4.7625989    1.6536988 
C     3.7106226    5.9384895    1.0478143 
C     5.2165761    5.6932114    1.3311347 
C     3.5008951    6.0456146   -0.4788488 
C     3.2796092    7.2811934    1.6869518 
C     2.8005526    4.6246629    3.0539187 
C     2.1224021    3.5501853    3.6588354 
C     1.5502536    2.5821889    2.8113461 
C     2.0243865    3.3688947    5.1875974 
C     2.8231682    2.0967232    5.5777634 
C     0.5446743    3.1903870    5.6113155 
C     2.6075648    4.5730690    5.9555771 
H     0.8330922   -3.6504115    6.7524216 
H     0.3047718   -4.9174566    5.6183687 
H     1.8989967   -4.1293253    5.4055233 
H     0.9702326   -1.2563045    6.0973910 
H     2.0201682   -1.6468346    4.7000871 
H     0.5249723   -0.7075603    4.4599159 
H    -1.3105117   -2.4137782    6.3598409 
H    -1.8593226   -3.5984010    5.1354455 
H    -1.7758921   -1.8626994    4.7274962 
H    -0.6771697   -1.3259980    2.7304312 
H     1.0739221   -5.1896768    3.5265134 
H    -0.6688860   -7.1930315    1.3423209 
H     0.7718759   -8.2541761    1.3028929 
H     0.4517722   -7.2366709    2.7326634 
H     1.5611239   -7.2669820   -0.8513927 
H     1.7313239   -5.5005518   -1.0650957 
H     0.1054861   -6.2446660   -0.9203869 
H     2.8322618   -6.1742146    2.4965183 
H     3.1189621   -7.2288422    1.0872453 
H     3.3023810   -5.4531772    0.9259392 
H     0.1838316   -4.0077518   -0.5260572 
H    -3.2049695    0.0490723   -1.2841250 
H    -7.6072535   -0.0086364   -3.1744683 
H    -7.2613140   -0.7010704   -1.5603588 
H    -7.2661960   -1.7448955   -3.0089878 
H    -4.0688138   -0.3645151   -4.5121425 
H    -5.7396285    0.1116842   -4.9466989 
H    -5.3351920   -1.6119831   -4.6914250 
H    -5.9209343    1.6987146   -2.9460804 
H    -4.2056027    1.3523952   -2.6414126 
H    -5.4028283    1.1602345   -1.3227861 
H    -5.7748586   -3.1480926   -2.6251541 
H    -2.2331601   -4.0409121   -0.3326970 
H    -5.8331400   -6.6944219   -2.2923595 
H    -6.5354985   -5.1317209   -1.8011413 
H    -5.6219640   -5.2674260   -3.3362335 
H    -5.3218442   -5.3910020    0.4385602 
H    -4.6351977   -6.9424934   -0.1224597 
H    -3.5559615   -5.6638713    0.4976709 
H    -3.0667727   -5.5976864   -3.2901347 
H    -3.3678457   -7.0786427   -2.3305695 
H    -2.2238366   -5.8453950   -1.7354683 
H    -1.5781269   -1.5721920   -2.9680077 
H    -0.1654148   -1.6364301   -5.0041897 
H     2.3391310   -1.5370270   -4.7902361 
H     4.7404911   -4.4547877   -1.5882196 
H     5.2650767   -2.9173856   -0.8191593 
H     5.2803602   -2.4727087   -3.2234349 
H     3.6893086   -3.2756591   -3.4543052 
H     4.4340417   -3.2053540    1.6176036 
H     4.2757207   -1.2509302    3.2002594 
H     2.8764869    0.6934977    2.6088790 
H     3.5099177    1.5083538   -1.1136577 
H     5.4404680    2.5202924   -1.7459519 
H     6.4822075    1.8591752   -3.0309296 
H     5.3011914    0.7943980   -2.2168901 
H     5.5814395    1.2063061   -5.2621959 
H     3.8543329    1.4001007   -5.6633166 
H     4.3589443    0.1524523   -4.4813641 
H     4.6322170    4.3550525   -3.3683300 
H     5.7583735    3.6753338   -4.5817232 
H     4.0409584    3.9193031   -4.9960887 
H     2.1165814    2.7180581   -5.0098994 
H    -0.7108629    2.0015801   -1.8214429 
H    -1.0337906    3.3452964   -6.5348326 
H     0.5037262    3.9990826   -5.9170152 
H     0.3809779    2.2730360   -6.3799194 
H    -0.7012061    4.8477115   -3.7810989 
H    -2.2090833    4.2710046   -4.5578627 
H    -1.8006784    3.7500963   -2.9015605 
H    -1.0972529    0.6909101   -5.0330653 
H    -2.4777562    1.8219169   -5.1618664 
H    -1.9361678    1.2399391   -3.5631990 
H     2.4408040    3.8245083   -0.2438174 
H     5.5492914    4.7419969    0.8790747 
H     5.8259922    6.5112777    0.9067944 
H     5.4173099    5.6435722    2.4156738 
H     3.8860665    5.1596925   -1.0135831 
H     4.0430566    6.9252171   -0.8664956 
H     2.4318284    6.1640003   -0.7303004 
H     3.4300207    7.2913909    2.7799683 
H     3.8774587    8.1073754    1.2638177 
H     2.2157415    7.4880095    1.4828165 
H     3.2560109    5.3867587    3.6902790 
H     0.9944893    1.7413186    3.2422456 
H     3.8797215    2.1888619    5.2709385 
H     2.4046507    1.1940319    5.0988492 
H     2.7921583    1.9428065    6.6712625 
H     0.0769281    2.3180247    5.1212637 
H     0.4780868    3.0306574    6.7018877 
H    -0.0513290    4.0862538    5.3637140 
H     2.0813978    5.5103122    5.7018834 
H     2.4990387    4.4098379    7.0416110 
H     3.6829154    4.7100237    5.7470763 
