206
Energy =
C    -0.7848614   -3.6046020    1.0455328 
C    -2.1062075   -3.2017947    0.7418491 
C    -2.4566978   -2.8501124   -0.5996706 
H    -2.8147685   -3.0060797    1.5564651 
Pd   -0.8312156   -1.5201139    0.1317792 
P    -0.7232710    0.0614200   -1.5637604 
P     0.7758562   -0.4751095    1.4692676 
H    -0.1747993   -3.9558767    0.1983314 
H    -1.9237988   -3.3744919   -1.4050072 
C     0.9066652   -4.6798802    4.8424281 
C     1.6762226   -4.7347209    3.6706785 
C     1.1077347   -4.3750999    2.4450864 
C    -0.2396831   -3.9514494    2.3639126 
C    -0.9968334   -3.8869594    3.5558161 
C    -0.4281883   -4.2476515    4.7803884 
H     1.3446597   -4.9736549    5.8016964 
H     2.7201876   -5.0625909    3.7105948 
H     1.7121451   -4.4175557    1.5331819 
H    -2.0398681   -3.5599440    3.5261719 
H    -1.0299985   -4.1914910    5.6929072 
C    -6.2804899   -1.2619205   -1.7882485 
C    -5.8045993   -1.0324137   -0.4862155 
C    -4.5590997   -1.5303522   -0.0909402 
C    -3.7640711   -2.2846789   -0.9854474 
C    -4.2518604   -2.4984718   -2.2931281 
C    -5.4954860   -1.9943396   -2.6903203 
H    -7.2548676   -0.8681482   -2.0954780 
H    -6.4076862   -0.4558837    0.2224682 
H    -4.1910490   -1.3194778    0.9188435 
H    -3.6455312   -3.0663087   -3.0040407 
H    -5.8503690   -2.1775285   -3.7099868 
C     3.0415318   -1.8366559    6.3404045 
C     1.6893952   -1.2422646    6.7882116 
C     1.0820064   -2.1762435    7.8634229 
C     1.9368793    0.1574254    7.4114238 
C     0.7244984   -1.0609321    5.5991078 
C     1.1862176   -0.9841538    4.2683836 
C    -0.6537324   -0.8951594    5.8279802 
C    -1.5896757   -0.6968265    4.7933941 
C    -3.0888324   -0.5660504    5.1266563 
C    -3.5332088   -1.7407812    6.0348318 
C    -3.3144902    0.7774710    5.8672669 
C    -3.9657852   -0.5886724    3.8577862 
C    -1.0946738   -0.6153691    3.4826985 
C     0.2871621   -0.7347731    3.2210757 
C     2.4830068   -1.0627165    1.1866410 
C     3.5949457   -0.5324481    1.8587482 
C     4.8836594   -1.0628724    1.6328590 
C     6.0913883   -0.5054160    2.4148183 
C     6.3425319    0.9585310    1.9769880 
C     7.3776936   -1.3200867    2.1631813 
C     5.7860021   -0.5417665    3.9327577 
C     5.0119603   -2.0907299    0.6813315 
C     3.9191952   -2.6022267   -0.0535567 
C     2.6511724   -2.0780748    0.2253605 
C     4.1360990   -3.7109374   -1.1005732 
C     4.6060585   -4.9990298   -0.3770673 
C     2.8401347   -4.0225224   -1.8800305 
C     5.2157664   -3.2613757   -2.1175099 
C     0.8457500    1.3616373    1.3106880 
C     0.4196551    2.1822853    2.3743349 
C     0.4360813    3.5731519    2.2299155 
C     0.8658743    4.1638806    1.0379254 
C     1.2894928    1.9372147    0.0956992 
C     1.2961172    3.3519354   -0.0269191 
C     1.8441373    1.1535026   -1.0512559 
C     3.2334349    1.3017877   -1.3120042 
O     3.9200060    2.0935935   -0.4390752 
C     5.1603672    2.6827789   -0.8765940 
C     4.9649480    3.7450892   -1.9720988 
C     4.7579052    5.1790877   -1.4519355 
C     3.5111643    5.4376488   -0.5871566 
C     2.1690402    5.2083750   -1.2999752 
O     1.7261848    3.8398879   -1.2266966 
C     3.8305963    0.6571009   -2.4098558 
C     3.0427789   -0.1103319   -3.2725259 
C     1.6699909   -0.2530517   -3.0492059 
C     1.0650872    0.3662633   -1.9362765 
C    -1.4770132    1.7017442   -1.2967997 
C    -1.2302712    2.7371971   -2.2220807 
C    -1.9063114    3.9595561   -2.1088425 
C    -1.7555485    5.0833432   -3.1523845 
C    -3.0971612    5.2168800   -3.9207572 
C    -0.6342023    4.7758860   -4.1672444 
C    -1.4329926    6.4260616   -2.4512265 
C    -2.7951607    4.1231273   -1.0209757 
C    -3.0338536    3.1218079   -0.0652343 
C    -2.3638559    1.8905470   -0.2295610 
C    -3.9931103    3.3183831    1.1254860 
C    -3.1876775    3.2032791    2.4441258 
C    -4.6892828    4.6945142    1.0984649 
C    -5.0825851    2.2184432    1.0849300 
C    -1.4539398   -0.5720683   -3.1263028 
C    -1.0829176   -1.8645854   -3.5594526 
C    -1.6179926   -2.4106263   -4.7343710 
C    -1.2135758   -3.8038670   -5.2556982 
C    -2.4705050   -4.7054824   -5.3575954 
C    -0.5720082   -3.6473546   -6.6586896 
C    -0.1929043   -4.4955562   -4.3276137 
C    -2.5657380   -1.6388698   -5.4474536 
C    -2.9795296   -0.3653140   -5.0260179 
C    -2.4023437    0.1595148   -3.8499760 
C    -3.9791206    0.4953294   -5.8234659 
C    -5.0018836    1.1642049   -4.8704249 
C    -4.7571640   -0.3377930   -6.8639417 
C    -3.1727669    1.5980376   -6.5601186 
H     2.9044323   -2.7945615    5.8097927 
H     3.5897254   -1.1511360    5.6749695 
H     3.6807999   -2.0170243    7.2217194 
H     0.8341684   -3.1631272    7.4375089 
H     0.1665785   -1.7573454    8.3145228 
H     1.8081318   -2.3256731    8.6813547 
H     2.6264269    0.0806032    8.2714350 
H     2.3828647    0.8429095    6.6691283 
H     0.9922120    0.6063810    7.7655455 
H     2.2463201   -1.1171403    4.0446966 
H    -1.0193295   -0.9375024    6.8577759 
H    -4.6098440   -1.6559629    6.2649075 
H    -2.9888140   -1.7527966    6.9939773 
H    -3.3654036   -2.7114612    5.5354643 
H    -2.7298714    0.8215913    6.8024968 
H    -4.3815614    0.9015088    6.1254128 
H    -3.0091258    1.6282526    5.2338025 
H    -3.7457071    0.2567256    3.1853681 
H    -3.8283123   -1.5282385    3.2931046 
H    -5.0314011   -0.5190828    4.1355401 
H    -1.7740690   -0.4555836    2.6380173 
H     3.4558981    0.3022026    2.5534154 
H     7.1557715    1.4047407    2.5769993 
H     5.4385806    1.5794375    2.0996788 
H     6.6390251    0.9939824    0.9155347 
H     8.2046735   -0.8990647    2.7604844 
H     7.2548320   -2.3775209    2.4569631 
H     7.6859806   -1.2864984    1.1033774 
H     5.5625278   -1.5702669    4.2647587 
H     4.9260357    0.0991663    4.1924257 
H     6.6561863   -0.1751649    4.5054591 
H     6.0031106   -2.5088363    0.4900309 
H     1.7657631   -2.4297453   -0.3116199 
H     4.7753571   -5.8110162   -1.1066851 
H     3.8470630   -5.3410857    0.3490162 
H     5.5493565   -4.8326490    0.1713502 
H     2.0455070   -4.4155987   -1.2202481 
H     2.4527944   -3.1234610   -2.3909684 
H     3.0390657   -4.7917697   -2.6458807 
H     5.3691311   -4.0438682   -2.8818057 
H     4.9063451   -2.3319959   -2.6254656 
H     6.1878954   -3.0775052   -1.6290201 
H     0.0875488    1.7376550    3.3152681 
H     0.1141427    4.2090662    3.0609163 
H     0.8713601    5.2521190    0.9458700 
H     5.8551633    1.8876331   -1.2036561 
H     5.5843597    3.1260293    0.0380132 
H     5.8629250    3.7417928   -2.6169161 
H     4.1233395    3.4349837   -2.6189658 
H     5.6510731    5.4733187   -0.8677818 
H     4.7293308    5.8627693   -2.3222292 
H     3.5305302    4.8198915    0.3303044 
H     3.5413198    6.4895863   -0.2481531 
H     1.3841860    5.8766013   -0.9022719 
H     2.2482358    5.4102624   -2.3806701 
H     4.9001803    0.7635935   -2.6034537 
H     3.5038711   -0.5931664   -4.1404275 
H     1.0682088   -0.8269694   -3.7566567 
H    -0.5151071    2.5642474   -3.0295089 
H    -3.0250762    6.0121440   -4.6841946 
H    -3.3527506    4.2713115   -4.4299955 
H    -3.9280038    5.4718162   -3.2401153 
H    -0.5199841    5.6224813   -4.8659947 
H    -0.8627519    3.8790685   -4.7695098 
H     0.3328850    4.6113841   -3.6618909 
H    -1.3170648    7.2285375   -3.2010113 
H    -0.4945078    6.3530988   -1.8762657 
H    -2.2338539    6.7330429   -1.7573074 
H    -3.3233256    5.0748504   -0.9272618 
H    -2.5259492    1.0649816    0.4725025 
H    -2.4393899    4.0103964    2.5139138 
H    -3.8644168    3.2773120    3.3142533 
H    -2.6450556    2.2448247    2.5103713 
H    -3.9617991    5.5232736    1.1567206 
H    -5.3651638    4.7842398    1.9664530 
H    -5.2970951    4.8269179    0.1861353 
H    -5.7784447    2.3357258    1.9349385 
H    -4.6422316    1.2103715    1.1452298 
H    -5.6630660    2.2738134    0.1477654 
H    -0.3707967   -2.4385377   -2.9595754 
H    -3.2321766   -4.2728056   -6.0283895 
H    -2.9333158   -4.8523756   -4.3655345 
H    -2.1964551   -5.6984816   -5.7557098 
H     0.3241239   -3.0039012   -6.6094410 
H    -0.2695617   -4.6336028   -7.0537120 
H    -1.2753026   -3.1962475   -7.3794186 
H     0.7430197   -3.9164783   -4.2419991 
H     0.0655787   -5.4887758   -4.7330350 
H    -0.5996823   -4.6488034   -3.3114117 
H    -2.9954688   -2.0599467   -6.3598666 
H    -2.7020603    1.1478640   -3.4956387 
H    -5.7331027    1.7475760   -5.4570794 
H    -5.5487447    0.4095804   -4.2806471 
H    -4.5188740    1.8597673   -4.1628527 
H    -5.3067565   -1.1680585   -6.3853263 
H    -4.0926185   -0.7612515   -7.6370525 
H    -5.4923675    0.3031296   -7.3801909 
H    -2.6134044    2.2242324   -5.8427708 
H    -2.4456243    1.1522360   -7.2610430 
H    -3.8514259    2.2548188   -7.1335773 
