200
Energy =
C     3.4461216    0.2197476    1.3773580 
C     3.4348476    1.5287886    0.8034739 
C     2.5298538    2.5211263    1.2390637 
H     4.0050860    1.7176215   -0.1150795 
Pd    1.4245816    0.6433831    0.5555661 
P    -0.4437624    1.4983050   -0.5440284 
P     0.4575568   -1.4601935    0.8271476 
H     3.2065912    0.1277472    2.4449389 
H     2.0496908    2.3802751    2.2212529 
C     5.6259984   -3.1141303   -0.2684596 
C     5.3592659   -1.9896839   -1.0678297 
C     4.6527011   -0.9038221   -0.5435252 
C     4.2064052   -0.9063617    0.8000274 
C     4.4886619   -2.0406469    1.5942833 
C     5.1874547   -3.1318266    1.0632722 
H     6.1745563   -3.9665958   -0.6819603 
H     5.7015255   -1.9618063   -2.1075939 
H     4.4356801   -0.0470266   -1.1908636 
H     4.1506901   -2.0656222    2.6357113 
H     5.3933642   -3.9997111    1.6974441 
C     2.2146856    6.4989254   -0.3590819 
C     1.1540955    5.9352641    0.3673111 
C     1.2691616    4.6451859    0.8926545 
C     2.4410951    3.8824239    0.6853024 
C     3.5066521    4.4662933   -0.0362127 
C     3.3946738    5.7636457   -0.5481807 
H     2.1266545    7.5106477   -0.7675668 
H     0.2300986    6.5019450    0.5216924 
H     0.4326118    4.2069631    1.4467638 
H     4.4441550    3.9162958   -0.1652389 
H     4.2377695    6.2087332   -1.0864473 
C     2.6946043   -1.1894590   -4.0385741 
C     2.1924080   -2.6480932   -4.1041487 
C     3.4123893   -3.6033102   -4.1637212 
C     1.3476812   -2.8059883   -5.3927939 
C     1.3498394   -3.0133020   -2.8666068 
C     1.3050202   -2.1984207   -1.7216579 
C     0.6047393   -4.2079530   -2.8435742 
C    -0.2021990   -4.5987624   -1.7553215 
C    -1.0121200   -5.9066776   -1.8292052 
C    -0.0330833   -7.1030991   -1.9404602 
C    -1.8984711   -6.1031214   -0.5813902 
C    -1.9306176   -5.8630235   -3.0772366 
C    -0.2449809   -3.7501495   -0.6380440 
C     0.5167519   -2.5673523   -0.6198931 
C     1.2081993   -2.3569010    2.2398316 
C     1.4354500   -1.6244709    3.4225122 
C     2.0246395   -2.2310666    4.5429077 
C     2.3260432   -1.4555040    5.8396736 
C     1.9138824    0.0285008    5.7375418 
C     3.8498580   -1.5194793    6.1202516 
C     1.5483765   -2.1011950    7.0147096 
C     2.3656502   -3.5973957    4.4394315 
C     2.1622190   -4.3533975    3.2697703 
C     1.5840582   -3.7054211    2.1601388 
C     2.5229863   -5.8519307    3.2350352 
C     1.4938448   -6.6123558    4.1127484 
C     2.4721013   -6.4215000    1.8001591 
C     3.9465640   -6.0826083    3.7997150 
C    -1.3375754   -1.3403946    1.2675010 
C    -1.7617958   -1.5613024    2.5930703 
C    -3.1137048   -1.4370416    2.9348618 
C    -4.0637323   -1.1009099    1.9654980 
C    -2.2866107   -0.9983604    0.2713415 
C    -3.6507042   -0.8984559    0.6403566 
C    -1.9622666   -0.8142950   -1.1762352 
C    -2.5093556   -1.7531733   -2.0851791 
O    -3.2137449   -2.8020791   -1.5538528 
C    -4.5782551   -3.0230071   -1.9774629 
C    -5.5277277   -2.7691104   -0.8031566 
C    -5.7572374   -1.2889630   -0.4853005 
O    -4.5248829   -0.5528826   -0.3601425 
C    -2.2902959   -1.6424870   -3.4663968 
C    -1.5475898   -0.5649280   -3.9604768 
C    -1.0109149    0.3864565   -3.0847444 
C    -1.2100995    0.2696879   -1.6939638 
C    -1.7948297    2.0682549    0.5416384 
C    -3.0787947    2.3447608    0.0315992 
C    -4.0826100    2.8354719    0.8782968 
C    -5.5015914    3.1541551    0.3710152 
C    -5.6648183    2.8221737   -1.1272535 
C    -5.7882205    4.6633353    0.5791968 
C    -6.5253946    2.3097961    1.1721781 
C    -3.7627302    3.0342705    2.2420981 
C    -2.4998614    2.7408290    2.7834772 
C    -1.5176414    2.2450426    1.9034412 
C    -2.1591685    2.9110636    4.2768781 
C    -3.2898958    3.6127678    5.0569102 
C    -0.8671556    3.7557665    4.4218336 
C    -1.9278146    1.5069546    4.8916694 
C     0.0019710    2.8878398   -1.6508649 
C    -0.8524536    3.9763004   -1.8887108 
C    -0.5018429    4.9611861   -2.8278973 
C    -1.4141351    6.1663833   -3.1313936 
C    -1.8560505    6.0994647   -4.6163656 
C    -0.6366874    7.4835549   -2.8808917 
C    -2.6779809    6.1726014   -2.2446015 
C     0.7179510    4.8086206   -3.5189066 
C     1.6019610    3.7350138   -3.2934926 
C     1.2295310    2.7831027   -2.3287005 
C     2.8822396    3.5686440   -4.1358351 
C     3.9026453    2.6336007   -3.4474889 
C     2.4713621    2.9437721   -5.4958340 
C     3.5677548    4.9334372   -4.3832515 
H     3.2493678   -0.9405201   -4.9597328 
H     3.3776834   -1.0312617   -3.1875411 
H     1.8528701   -0.4803468   -3.9447746 
H     4.0517849   -3.3607702   -5.0318269 
H     4.0188885   -3.5181552   -3.2458139 
H     3.0893330   -4.6545999   -4.2603333 
H     1.9467351   -2.5182317   -6.2747742 
H     0.4526842   -2.1619316   -5.3541366 
H     1.0141531   -3.8463333   -5.5459889 
H     1.8626188   -1.2590999   -1.6735706 
H     0.6417480   -4.8605056   -3.7218719 
H    -0.5936046   -8.0530587   -2.0022094 
H     0.6025516   -7.0261048   -2.8396960 
H     0.6303855   -7.1492003   -1.0589159 
H    -1.2943280   -6.1852341    0.3399913 
H    -2.6079045   -5.2661314   -0.4601397 
H    -2.4793250   -7.0364378   -0.6804661 
H    -2.5480262   -6.7773207   -3.1314781 
H    -2.5990110   -4.9873864   -3.0240861 
H    -1.3501389   -5.7950423   -4.0133516 
H    -0.8879633   -3.9814281    0.2141820 
H     1.1521286   -0.5676141    3.4501729 
H     0.8299889    0.1443297    5.5640167 
H     2.4546923    0.5492668    4.9261177 
H     2.1568317    0.5468174    6.6808609 
H     4.1984090   -2.5579327    6.2526721 
H     4.4209497   -1.0727897    5.2867577 
H     4.0925583   -0.9624266    7.0425662 
H     0.4599519   -2.0620717    6.8320308 
H     1.7610978   -1.5634326    7.9557190 
H     1.8317028   -3.1579135    7.1591167 
H     2.8168754   -4.0881774    5.3076240 
H     1.4331209   -4.2457166    1.2246760 
H     1.5179608   -6.2556574    5.1573943 
H     1.7155333   -7.6946424    4.1148269 
H     0.4690380   -6.4686891    3.7272554 
H     3.1537214   -5.8767692    1.1228346 
H     2.7774934   -7.4818104    1.8111805 
H     1.4543751   -6.3765288    1.3741542 
H     4.7008844   -5.5331529    3.2105096 
H     4.1976832   -7.1570017    3.7615486 
H     4.0349279   -5.7608062    4.8512559 
H    -1.0389949   -1.8474345    3.3606390 
H    -3.4286437   -1.6080076    3.9692903 
H    -5.1184533   -0.9951036    2.2338727 
H    -4.8161705   -2.3736583   -2.8403600 
H    -4.6479182   -4.0754940   -2.3022216 
H    -6.5106282   -3.2247150   -1.0272244 
H    -5.1253925   -3.2927945    0.0830091 
H    -6.2801857   -0.7831960   -1.3134220 
H    -6.3810047   -1.1755585    0.4219929 
H    -2.6971569   -2.4027185   -4.1397407 
H    -1.3834493   -0.4632216   -5.0380597 
H    -0.4447302    1.2302788   -3.4870953 
H    -3.2842598    2.1466647   -1.0225685 
H    -6.6998174    3.0369733   -1.4447302 
H    -4.9920252    3.4326322   -1.7554046 
H    -5.4555955    1.7572224   -1.3263621 
H    -5.0640134    5.2791923    0.0170736 
H    -6.8038649    4.9125718    0.2233890 
H    -5.7243488    4.9483466    1.6436908 
H    -6.4969248    2.5429224    2.2504073 
H    -7.5507884    2.5076243    0.8124031 
H    -6.3126717    1.2343573    1.0487142 
H    -4.5420684    3.4214805    2.9031628 
H    -0.5236190    1.9724613    2.2756303 
H    -3.5009142    4.6176720    4.6506664 
H    -4.2251594    3.0262618    5.0386903 
H    -2.9948909    3.7315145    6.1137259 
H    -0.6285434    3.9066475    5.4893956 
H    -0.9875002    4.7473764    3.9513824 
H     0.0032496    3.2610850    3.9559737 
H    -1.1328987    0.9595131    4.3561996 
H    -2.8467279    0.8995483    4.8316380 
H    -1.6338540    1.5938794    5.9531636 
H    -1.7873998    4.0524110   -1.3315846 
H    -0.9908865    6.1392059   -5.3005897 
H    -2.5166392    6.9512682   -4.8578736 
H    -2.4079519    5.1646645   -4.8184194 
H    -1.2737462    8.3531854   -3.1210653 
H    -0.3303615    7.5611318   -1.8239316 
H     0.2717577    7.5490316   -3.5039797 
H    -3.3019975    5.2771782   -2.4134394 
H    -3.2942207    7.0565798   -2.4823605 
H    -2.4245905    6.2187937   -1.1702998 
H     0.9892545    5.5600117   -4.2663802 
H     1.8824824    1.9329271   -2.1042633 
H     3.5210917    1.6030014   -3.3492951 
H     4.8268592    2.5831064   -4.0482818 
H     4.1664766    3.0065923   -2.4428016 
H     3.3569099    2.8074282   -6.1426695 
H     1.7518652    3.5911523   -6.0269998 
H     1.9975817    1.9572091   -5.3454498 
H     4.5055089    4.7867052   -4.9469774 
H     3.8091648    5.4310852   -3.4287961 
H     2.9347747    5.6154551   -4.9756764 
