206
Energy =
C    -1.8510945   -3.3411715    1.4822550 
C    -3.0298446   -2.6272048    1.1044632 
C    -3.3375582   -2.3783752   -0.2532217 
H    -3.6205761   -2.1293876    1.8842405 
Pd   -1.3028004   -1.5251544    0.3184510 
P    -1.3487110    0.5012832   -0.8815984 
P     0.8423514   -1.0943793    1.0804944 
H    -1.4858726   -4.1200106    0.7963821 
H    -2.8940337   -3.0562130   -0.9994843 
C    -0.5235062   -3.7127846    5.5629460 
C    -1.2754558   -2.5929999    5.1692596 
C    -1.7117810   -2.4693156    3.8470869 
C    -1.4155734   -3.4655753    2.8876472 
C    -0.6578918   -4.5824317    3.2990459 
C    -0.2132302   -4.7036337    4.6213673 
H    -0.1809810   -3.8095899    6.5980899 
H    -1.5152502   -1.8087133    5.8954719 
H    -2.2669187   -1.5756654    3.5462784 
H    -0.4140848   -5.3617716    2.5701999 
H     0.3832710   -5.5731560    4.9146394 
C    -6.6835011   -0.1464949   -1.7736553 
C    -6.0051752   -1.0682087   -2.5841868 
C    -4.9179072   -1.7821703   -2.0704402 
C    -4.4818824   -1.5907226   -0.7406900 
C    -5.1683469   -0.6483928    0.0589458 
C    -6.2562829    0.0638830   -0.4522726 
H    -7.5405068    0.4094113   -2.1668580 
H    -6.3200814   -1.2318556   -3.6197978 
H    -4.3935667   -2.5041052   -2.7029862 
H    -4.8453815   -0.4606246    1.0861310 
H    -6.7742078    0.7908226    0.1817806 
C     4.8704230   -1.2650651    5.0419078 
C     3.8573766   -2.3865944    5.3923612 
C     4.6225301   -3.5476163    6.0604568 
C     2.8138072   -1.8444773    6.4018568 
C     3.1431689   -2.8269293    4.0994384 
C     2.3324582   -1.8957763    3.4129778 
C     3.3003406   -4.1031224    3.5372854 
C     2.6783434   -4.4876360    2.3266919 
C     2.9591666   -5.8776634    1.7248932 
C     2.5941705   -6.9823530    2.7481621 
C     2.1536360   -6.1234134    0.4313589 
C     4.4700437   -5.9636804    1.3817546 
C     1.8513198   -3.5526184    1.6954420 
C     1.6839641   -2.2570766    2.2281658 
C     2.1874355   -1.0124043   -0.1677821 
C     3.4652397   -0.5957963    0.2544146 
C     4.5705772   -0.7436102   -0.5904183 
C     5.9927924   -0.3391273   -0.1598305 
C     6.5886837    0.6428438   -1.1994864 
C     6.8710696   -1.6152769   -0.0842931 
C     6.0005377    0.3445910    1.2238085 
C     4.3587492   -1.3295768   -1.8613009 
C     3.0967989   -1.7505131   -2.3077225 
C     2.0010467   -1.5736017   -1.4344155 
C     2.8724067   -2.4092794   -3.6822303 
C     4.1886729   -2.6016230   -4.4633317 
C     2.2236600   -3.8025703   -3.4740359 
C     1.9318694   -1.5111097   -4.5237151 
C     0.6576998    0.5398214    1.8898826 
C     0.2334334    0.5759823    3.2370847 
C    -0.0042245    1.8062446    3.8550605 
C     0.1551536    3.0049453    3.1489747 
C     0.7640202    1.7341826    1.1384837 
C     0.5212776    2.9735627    1.7921488 
C     1.1150849    1.7766640   -0.3127529 
C     2.3475779    2.3759310   -0.6757481 
O     3.1363645    2.7685370    0.3667986 
C     4.1612076    3.7541254    0.1365486 
C     3.5877628    5.1603466   -0.1010075 
C     3.3479530    5.9943346    1.1715252 
C     2.3122298    5.4690287    2.1831242 
C     0.8788367    5.3552430    1.6396057 
O     0.6346496    4.0839820    1.0096614 
C     2.7101322    2.4973441   -2.0291023 
C     1.8490446    2.0180159   -3.0217963 
C     0.6279017    1.4221897   -2.6871445 
C     0.2561405    1.3012897   -1.3349096 
C    -2.1731704    1.8178410    0.0942084 
C    -2.7937553    1.5052558    1.3156650 
C    -3.4568689    2.5008225    2.0531836 
C    -4.1567910    2.2137700    3.3963794 
C    -3.8370963    0.7986746    3.9209039 
C    -5.6892089    2.3386760    3.1972297 
C    -3.6888501    3.2358477    4.4634979 
C    -3.4899752    3.8022678    1.5119509 
C    -2.8462964    4.1551348    0.3099182 
C    -2.1633031    3.1408289   -0.3828909 
C    -2.9464623    5.5881955   -0.2491006 
C    -4.3484999    5.7495710   -0.8945145 
C    -2.7833848    6.6363287    0.8783587 
C    -1.8669790    5.8554887   -1.3219065 
C    -2.2347273    0.3517191   -2.4852280 
C    -2.0063541   -0.8181664   -3.2422234 
C    -2.5945779   -0.9807500   -4.5062530 
C    -2.3933575   -2.2458224   -5.3645362 
C    -3.7679294   -2.8021996   -5.8175983 
C    -1.5574631   -1.8683579   -6.6152471 
C    -1.6570084   -3.3588578   -4.5902506 
C    -3.3951380    0.0748153   -4.9993692 
C    -3.6513903    1.2441401   -4.2663359 
C    -3.0713838    1.3564307   -2.9850824 
C    -4.4931772    2.4130025   -4.8157016 
C    -5.0638644    2.1144856   -6.2173752 
C    -3.5848307    3.6675092   -4.9106688 
C    -5.6752538    2.7046827   -3.8583626 
H     5.6245327   -1.6312414    4.3233064 
H     4.3690510   -0.3896987    4.5933218 
H     5.3964921   -0.9247477    5.9518545 
H     5.4225791   -3.9411482    5.4090344 
H     3.9469791   -4.3803667    6.3246644 
H     5.0982407   -3.1925122    6.9908850 
H     3.3156108   -1.5193966    7.3305015 
H     2.2610669   -0.9784631    5.9978058 
H     2.0778625   -2.6251450    6.6587620 
H     2.2416679   -0.8763064    3.7957587 
H     3.9423308   -4.8283264    4.0429253 
H     2.8204775   -7.9794762    2.3306916 
H     1.5185467   -6.9519281    2.9952106 
H     3.1625528   -6.8758520    3.6878594 
H     1.0643810   -6.0729070    0.6114156 
H     2.3787039   -7.1297888    0.0383173 
H     2.4090029   -5.3920012   -0.3557130 
H     4.7507715   -5.1738990    0.6624496 
H     5.0973238   -5.8430762    2.2817577 
H     4.7067879   -6.9449836    0.9326668 
H     1.3509070   -3.7993352    0.7540821 
H     3.5791261   -0.1719119    1.2546390 
H     7.6046362    0.9527784   -0.8966377 
H     5.9610500    1.5470789   -1.2847708 
H     6.6618626    0.1868799   -2.2015765 
H     7.8975420   -1.3570690    0.2324072 
H     6.4519392   -2.3321523    0.6439296 
H     6.9361945   -2.1222606   -1.0627342 
H     5.6521059   -0.3388754    2.0175018 
H     5.3556947    1.2401601    1.2347989 
H     7.0278282    0.6563872    1.4800965 
H     5.2225124   -1.4676658   -2.5159959 
H     0.9941506   -1.8902923   -1.7309156 
H     3.9773498   -3.0859047   -5.4323772 
H     4.8985523   -3.2453530   -3.9147356 
H     4.6838265   -1.6374318   -4.6741767 
H     2.8894582   -4.4581020   -2.8856180 
H     1.2606875   -3.7328698   -2.9394479 
H     2.0327622   -4.2875947   -4.4479550 
H     1.7260789   -1.9818761   -5.5015543 
H     0.9677277   -1.3381860   -4.0166950 
H     2.3939884   -0.5253047   -4.7026716 
H     0.0909971   -0.3536783    3.7942980 
H    -0.3158080    1.8366035    4.9043206 
H    -0.0295051    3.9559685    3.6531171 
H     4.8053278    3.4359110   -0.7028704 
H     4.7796648    3.7203058    1.0485764 
H     4.3005028    5.7141939   -0.7395085 
H     2.6586912    5.0630904   -0.6936961 
H     4.3142879    6.1152393    1.6979240 
H     3.0459182    7.0134593    0.8619409 
H     2.6122382    4.4823566    2.5833510 
H     2.2988892    6.1594641    3.0465643 
H     0.1281280    5.5340580    2.4303594 
H     0.6919558    6.0937468    0.8431481 
H     3.6592978    2.9572584   -2.3129382 
H     2.1345999    2.1159534   -4.0742168 
H    -0.0384234    1.0633774   -3.4754365 
H    -2.7205544    0.4789572    1.6869926 
H    -4.3201019    0.6420769    4.9005300 
H    -4.2151019    0.0131122    3.2428119 
H    -2.7497961    0.6568065    4.0465043 
H    -6.2192431    2.1515899    4.1482419 
H    -6.0478977    1.6063374    2.4528521 
H    -5.9679620    3.3463183    2.8434249 
H    -4.1691374    3.0191752    5.4340657 
H    -3.9517599    4.2708971    4.1870403 
H    -2.5946544    3.1854747    4.5970683 
H    -4.0316979    4.5786959    2.0604808 
H    -1.6033669    3.3718209   -1.2918381 
H    -5.1486311    5.5829177   -0.1520763 
H    -4.4686444    6.7665836   -1.3093248 
H    -4.4887480    5.0235067   -1.7143907 
H    -3.5846409    6.5648842    1.6332222 
H    -2.8241796    7.6547288    0.4541310 
H    -1.8160985    6.5165292    1.3945458 
H    -1.9101105    6.9109012   -1.6413524 
H    -2.0184546    5.2361125   -2.2227298 
H    -0.8549834    5.6480996   -0.9334315 
H    -1.3749885   -1.6040562   -2.8156501 
H    -4.3269386   -2.0758749   -6.4313713 
H    -4.3963887   -3.0695660   -4.9500011 
H    -3.6245150   -3.7114979   -6.4274128 
H    -0.5737327   -1.4643583   -6.3214489 
H    -1.3932343   -2.7569672   -7.2507686 
H    -2.0707275   -1.1045796   -7.2248845 
H    -0.6389079   -3.0538344   -4.2985767 
H    -1.5625567   -4.2560482   -5.2255869 
H    -2.2072560   -3.6516816   -3.6773223 
H    -3.8390512   -0.0338627   -5.9916011 
H    -3.2722059    2.2414751   -2.3771320 
H    -5.6642131    2.9732006   -6.5638010 
H    -4.2636188    1.9471405   -6.9597873 
H    -5.7228807    1.2281699   -6.2085371 
H    -2.7251577    3.4811977   -5.5778810 
H    -3.1911351    3.9576181   -3.9211635 
H    -4.1559483    4.5240027   -5.3112850 
H    -6.3634258    1.8447482   -3.8187348 
H    -5.3339357    2.9086891   -2.8289628 
H    -6.2401773    3.5860962   -4.2103481 
