197
Energy =
C    -1.6223003    2.6246188    2.1022113 
C    -2.8100875    1.8838358    1.8251266 
C    -2.9511115    0.5544596    2.2865403 
H    -3.5428060    2.2840400    1.1118628 
Pd   -1.1083410    0.7730727    0.9677308 
P    -1.0318222   -1.2987223   -0.1111253 
P     1.0806257    1.2742013    0.3630141 
H    -1.1082319    2.4023510    3.0477378 
H    -2.2845487    0.2366145    3.1047666 
C    -0.7640072    6.5435392    0.5376703 
C    -1.5082774    5.6342559   -0.2330278 
C    -1.7925104    4.3572624    0.2614789 
C    -1.3402284    3.9606069    1.5410569 
C    -0.5921619    4.8844120    2.3018639 
C    -0.3105070    6.1631012    1.8085355 
H    -0.5413387    7.5420611    0.1472803 
H    -1.8636628    5.9237712   -1.2268352 
H    -2.3571613    3.6497455   -0.3570763 
H    -0.2297621    4.5924995    3.2910944 
H     0.2650593    6.8624374    2.4226295 
C    -6.3374035   -2.0252160    1.7031869 
C    -5.0978877   -2.5495304    2.1013182 
C    -4.0056462   -1.6996995    2.2959057 
C    -4.1237497   -0.3083170    2.0755563 
C    -5.3799454    0.2089475    1.6871549 
C    -6.4764057   -0.6420644    1.5107455 
H    -7.1939989   -2.6901051    1.5532276 
H    -4.9803127   -3.6267364    2.2572007 
H    -3.0366764   -2.1159846    2.5941941 
H    -5.5106843    1.2881376    1.5582241 
H    -7.4486406   -0.2220461    1.2336537 
C     0.8881644   -6.3023380   -0.8998881 
C     1.0769441   -6.2173920    0.6295969 
C     2.5814918   -6.4247663    0.9415328 
C     0.2375441   -7.3356377    1.2985522 
C     0.6290195   -4.8534269    1.1884221 
C     0.0774152   -3.8539197    0.3697686 
C     0.7793582   -4.5687832    2.5623079 
C     0.4237252   -3.3335941    3.1388861 
C     0.6396695   -3.0760713    4.6426210 
C    -0.3207619   -3.9898300    5.4464143 
C     2.1064254   -3.3967614    5.0248896 
C     0.3570418   -1.6041726    5.0170752 
C    -0.1368129   -2.3633962    2.2914719 
C    -0.3193144   -2.6235616    0.9237523 
C    -2.6731208   -1.8574996   -0.6991666 
C    -3.5260284   -0.8700023   -1.2232446 
C    -4.7399774   -1.2229365   -1.8380148 
C    -5.6246561   -0.1759967   -2.5429234 
C    -5.3000202    1.2598630   -2.0723010 
C    -7.1250094   -0.4459250   -2.2769633 
C    -5.3467768   -0.2787883   -4.0665902 
C    -5.0815108   -2.5896225   -1.8602997 
C    -4.2689857   -3.5973015   -1.3016864 
C    -3.0472094   -3.2104805   -0.7250044 
C    -4.7156276   -5.0713011   -1.3650668 
C    -4.7784123   -5.5084328   -2.8517429 
C    -6.1175900   -5.2214225   -0.7215359 
C    -3.7372991   -6.0045600   -0.6195881 
C    -0.0129191   -1.3260768   -1.6566082 
C    -0.6582151   -1.3823704   -2.9069730 
C     0.0828991   -1.4063851   -4.0942419 
C     1.4781354   -1.3962627   -4.0460441 
C     1.4066748   -1.3004688   -1.5892413 
C     2.1279741   -1.3715987   -2.8035489 
C     2.1842094   -1.2806796   -0.3138678 
C     3.0332471   -2.3826121   -0.0491000 
O     3.0976992   -3.4203814   -0.9602665 
C     4.3071249   -3.4493895   -1.7478582 
C     4.0949967   -2.6801371   -3.0510325 
O     3.5100277   -1.3918661   -2.7686690 
C     3.7928283   -2.4662058    1.1259021 
C     3.7737395   -1.4038071    2.0315678 
C     2.9859965   -0.2774055    1.7700584 
C     2.1783133   -0.2045178    0.6175449 
C     1.3562465    1.7776100   -1.3699969 
C     2.6665669    1.7949224   -1.8909778 
C     2.8941362    2.1867289   -3.2163467 
C     4.3042725    2.2190101   -3.8355284 
C     4.3512725    1.2400237   -5.0371274 
C     4.6161376    3.6588897   -4.3172607 
C     5.3858961    1.7910057   -2.8212740 
C     1.7725169    2.5515225   -3.9977758 
C     0.4559444    2.5382369   -3.5081423 
C     0.2641625    2.1427212   -2.1668124 
C    -0.7594500    2.9449642   -4.3666917 
C    -0.3567982    3.3346422   -5.8037896 
C    -1.4574660    4.1592328   -3.7040951 
C    -1.7605025    1.7651573   -4.4423299 
C     1.8279062    2.5831765    1.4095666 
C     2.5039421    3.6829572    0.8539273 
C     3.1083825    4.6422091    1.6838795 
C     3.9120417    5.8232026    1.1033386 
C     3.4414339    7.1593180    1.7294373 
C     5.4107365    5.5964738    1.4353455 
C     3.7548052    5.9290846   -0.4292508 
C     3.0192032    4.4620460    3.0817751 
C     2.3323160    3.3833055    3.6687670 
C     1.7159774    2.4582025    2.8045641 
C     2.2706041    3.1515331    5.1925467 
C     0.8008686    2.9673724    5.6477619 
C     2.8812742    4.3258904    5.9849836 
C     3.0700448    1.8619651    5.5191121 
H     1.2355027   -7.2855680   -1.2615212 
H    -0.1735361   -6.2004714   -1.1875478 
H     1.4702802   -5.5201793   -1.4170760 
H     2.9201197   -7.4005756    0.5500467 
H     3.1781406   -5.6279667    0.4658859 
H     2.7829234   -6.4111130    2.0266822 
H     0.5427144   -8.3250506    0.9136594 
H    -0.8374925   -7.1980128    1.0852162 
H     0.3689597   -7.3448296    2.3945842 
H    -0.0169467   -4.0079106   -0.7074303 
H     1.2112914   -5.3402991    3.2083362 
H    -0.1329960   -5.0561702    5.2316176 
H    -0.1861539   -3.8317007    6.5315256 
H    -1.3730860   -3.7716726    5.1921846 
H     2.2704891   -3.2033312    6.0997770 
H     2.8051285   -2.7684184    4.4466013 
H     2.3597958   -4.4534362    4.8344510 
H    -0.6979765   -1.3284061    4.8391242 
H     0.5621403   -1.4450562    6.0896057 
H     0.9999019   -0.9124397    4.4430822 
H    -0.4139587   -1.3767253    2.6730357 
H    -3.2157281    0.1782673   -1.1613326 
H    -5.9943936    1.9737168   -2.5476166 
H    -4.2768935    1.5667742   -2.3509127 
H    -5.4070302    1.3538752   -0.9775973 
H    -7.4515362   -1.4164022   -2.6873786 
H    -7.7390482    0.3352433   -2.7581438 
H    -7.3395007   -0.4411440   -1.1954476 
H    -5.9552258    0.4581342   -4.6214517 
H    -5.5936347   -1.2855778   -4.4464992 
H    -4.2819262   -0.0834500   -4.2845773 
H    -6.0220506   -2.8841505   -2.3354496 
H    -2.3830735   -3.9566297   -0.2864007 
H    -5.0955415   -6.5638762   -2.9280727 
H    -5.4972531   -4.8967905   -3.4240352 
H    -3.7884916   -5.4083652   -3.3306426 
H    -6.8743180   -4.6033687   -1.2343041 
H    -6.4502483   -6.2731207   -0.7759592 
H    -6.0958823   -4.9212015    0.3399676 
H    -2.7293281   -5.9884584   -1.0706176 
H    -4.1052051   -7.0437529   -0.6681202 
H    -3.6426956   -5.7304251    0.4464405 
H    -1.7490764   -1.4171362   -2.9561035 
H    -0.4332881   -1.4437923   -5.0587308 
H     2.0798213   -1.4176651   -4.9594333 
H     4.5363291   -4.5087173   -1.9555233 
H     5.1372694   -3.0107088   -1.1651171 
H     5.0596970   -2.4977146   -3.5547471 
H     3.4349651   -3.2439531   -3.7349264 
H     4.4004315   -3.3582488    1.3034996 
H     4.3845850   -1.4406842    2.9391912 
H     3.0201690    0.5613932    2.4674476 
H     3.4949240    1.4789722   -1.2526357 
H     4.1444839    0.2121454   -4.6944402 
H     5.3514215    1.2606229   -5.5058286 
H     3.6115446    1.5066317   -5.8120429 
H     5.6265204    3.7016238   -4.7614773 
H     4.5785602    4.3715138   -3.4744777 
H     3.8979189    3.9997474   -5.0829669 
H     5.2126331    0.7612259   -2.4635775 
H     6.3785486    1.8228616   -3.3028555 
H     5.4179796    2.4677888   -1.9483252 
H     1.9453440    2.8513716   -5.0341717 
H    -0.7411993    2.1022553   -1.7332608 
H    -1.2577577    3.6067465   -6.3803420 
H     0.3227129    4.2048438   -5.8167388 
H     0.1368764    2.4988281   -6.3302586 
H    -0.7579938    5.0061322   -3.5954359 
H    -2.3145965    4.4902811   -4.3173792 
H    -1.8380455    3.9022092   -2.7017402 
H    -1.3125006    0.9044894   -4.9650698 
H    -2.6701787    2.0697600   -4.9898914 
H    -2.0667099    1.4225488   -3.4390055 
H     2.5562666    3.7819744   -0.2310457 
H     3.5395077    7.1611452    2.8285816 
H     4.0511214    7.9934641    1.3398406 
H     2.3863506    7.3575671    1.4768665 
H     5.5808793    5.5543518    2.5253446 
H     6.0227365    6.4204307    1.0266478 
H     5.7689457    4.6480261    0.9975027 
H     2.6965504    6.0553106   -0.7194544 
H     4.3152714    6.8048138   -0.7992073 
H     4.1525471    5.0389004   -0.9478690 
H     3.5073050    5.1930851    3.7306770 
H     1.1529572    1.6149642    3.2212530 
H     0.3169517    2.1101428    5.1467979 
H     0.2026767    3.8718851    5.4398315 
H     0.7609448    2.7777316    6.7348195 
H     2.3575541    5.2747055    5.7726032 
H     2.7957449    4.1291589    7.0675125 
H     3.9528292    4.4611301    5.7568658 
H     4.1191070    1.9573561    5.1885928 
H     3.0652362    1.6706528    6.6071320 
H     2.6325338    0.9791355    5.0199771 
