206
Energy =
C    -1.8220806   -3.2719143    1.5459610 
C    -2.9999145   -2.6285989    1.0498615 
C    -3.2311490   -2.4806047   -0.3363478 
H    -3.6598713   -2.1067656    1.7553355 
Pd   -1.2579413   -1.5172066    0.3119512 
P    -1.3300165    0.5118178   -0.8664626 
P     0.8800691   -1.0588048    1.0860706 
H    -1.4040457   -4.0980707    0.9522991 
H    -2.7085492   -3.1798224   -1.0084870 
C    -0.6820681   -3.2221076    5.7007968 
C    -0.3124377   -4.2931263    4.8742901 
C    -0.7040606   -4.3122895    3.5302972 
C    -1.4607178   -3.2568168    2.9782117 
C    -1.8198382   -2.1803956    3.8233102 
C    -1.4411617   -2.1658891    5.1692685 
H    -0.3805890   -3.2072686    6.7530679 
H     0.2874349   -5.1169088    5.2743748 
H    -0.4171577   -5.1534475    2.8925714 
H    -2.3756547   -1.3301956    3.4139279 
H    -1.7298858   -1.3208847    5.8038739 
C    -6.6382151   -0.5763807   -2.1367209 
C    -5.9142789   -1.5557028   -2.8311222 
C    -4.7977838   -2.1542089   -2.2368878 
C    -4.3840972   -1.7901930   -0.9369348 
C    -5.1081800   -0.7822536   -0.2614766 
C    -6.2231310   -0.1842157   -0.8529616 
H    -7.5198313   -0.1163928   -2.5944218 
H    -6.2196199   -1.8551740   -3.8387255 
H    -4.2401891   -2.9247182   -2.7785275 
H    -4.7891348   -0.4526458    0.7285213 
H    -6.7691227    0.5966030   -0.3131226 
C     4.6775704   -3.6074330    6.0079164 
C     3.9284829   -2.4278505    5.3543698 
C     2.9215428   -1.8562879    6.3849806 
C     4.9638402   -1.3355345    4.9788294 
C     3.1686621   -2.8519941    4.0822610 
C     2.3996159   -1.8900487    3.3905114 
C     3.2318900   -4.1496630    3.5517967 
C     2.5567656   -4.5250701    2.3672322 
C     2.7241331   -5.9492632    1.8045739 
C     4.2105071   -6.1453185    1.4051964 
C     2.3335769   -6.9925674    2.8817855 
C     1.8493466   -6.1850435    0.5547358 
C     1.7771642   -3.5548930    1.7278943 
C     1.6992423   -2.2399223    2.2318122 
C     2.2222441   -0.9969502   -0.1674693 
C     3.5033173   -0.5857510    0.2503034 
C     4.6068878   -0.7459398   -0.5950085 
C     6.0329371   -0.3506490   -0.1681030 
C     6.0460467    0.3529642    1.2054349 
C     6.6432147    0.6083599   -1.2206771 
C     6.8964473   -1.6355147   -0.0723963 
C     4.3894028   -1.3384286   -1.8616261 
C     3.1238425   -1.7525157   -2.3043628 
C     2.0301128   -1.5625990   -1.4313276 
C     2.8937166   -2.4115503   -3.6777219 
C     2.0021574   -1.4791396   -4.5351712 
C     4.2125144   -2.6600468   -4.4385762 
C     2.1880810   -3.7774345   -3.4737965 
C     0.7436517    0.5821332    1.8880765 
C     0.3960701    0.6391108    3.2555232 
C     0.2322890    1.8796677    3.8761603 
C     0.3716314    3.0677370    3.1495666 
C     0.8392845    1.7673153    1.1197925 
C     0.6537054    3.0166908    1.7731878 
C     1.1491177    1.7934477   -0.3415652 
C     2.3816722    2.3752258   -0.7367747 
O     3.2003064    2.7649275    0.2834886 
C     4.2373731    3.7285996    0.0175392 
C     3.6836704    5.1407793   -0.2314111 
C     3.4899086    5.9981442    1.0329881 
C     2.4799455    5.4966556    2.0815178 
C     1.0288722    5.3935245    1.5847890 
O     0.7455545    4.1195644    0.9764274 
C     2.7162923    2.4863122   -2.0978980 
C     1.8261614    2.0176960   -3.0691911 
C     0.6063397    1.4385498   -2.7040096 
C     0.2630713    1.3226830   -1.3430506 
C    -2.1605070    1.7999476    0.1464751 
C    -2.1367591    3.1377098   -0.2966675 
C    -2.8469841    4.1295233    0.3949505 
C    -2.9238125    5.5815863   -0.1161840 
C    -1.8719635    5.8560544   -1.2132041 
C    -2.6932969    6.5810314    1.0440599 
C    -4.3388696    5.8084149   -0.7110363 
C    -3.5487875    3.7454519    1.5591360 
C    -3.5463238    2.4314803    2.0607248 
C    -2.8359646    1.4573633    1.3276465 
C    -4.2606369    2.0540114    3.3768932 
C    -3.1874670    1.7533881    4.4530262 
C    -5.1693652    3.1905758    3.8922787 
C    -5.1379792    0.7949232    3.1737863 
C    -2.2479727    0.3888377   -2.4536849 
C    -1.9939537   -0.7383533   -3.2653711 
C    -2.5916043   -0.8599118   -4.5294751 
C    -2.3259822   -2.0571780   -5.4647222 
C    -1.5651034   -3.1935664   -4.7500968 
C    -3.6616284   -2.6348975   -5.9976699 
C    -1.4723163   -1.5585280   -6.6604955 
C    -3.4467531    0.1819040   -4.9552699 
C    -3.7376469    1.3027638   -4.1616265 
C    -3.1297513    1.3834411   -2.8913940 
C    -4.6336098    2.4623632   -4.6402029 
C    -5.7409917    2.7452566   -3.5949928 
C    -5.3084245    2.1579954   -5.9935351 
C    -3.7449786    3.7245675   -4.8002944 
H     3.9857673   -4.4167062    6.3012661 
H     5.4435701   -4.0306104    5.3343905 
H     5.1929837   -3.2604274    6.9200765 
H     2.1747619   -2.6192091    6.6635794 
H     2.3781184   -0.9816414    5.9868955 
H     3.4516701   -1.5368304    7.2998748 
H     5.5224538   -1.0124721    5.8754869 
H     5.6886710   -1.7220644    4.2410190 
H     4.4779113   -0.4442473    4.5450832 
H     2.3775918   -0.8587926    3.7510623 
H     3.8375102   -4.9014587    4.0633272 
H     4.3664553   -7.1564687    0.9881884 
H     4.8809676   -6.0297913    2.2742780 
H     4.5095504   -5.4037227    0.6433835 
H     2.9584674   -6.9020264    3.7865424 
H     2.4630412   -8.0157633    2.4869024 
H     1.2781450   -6.8741627    3.1844152 
H     0.7744564   -6.0541096    0.7769737 
H     2.1187637   -5.5012931   -0.2699180 
H     1.9899142   -7.2175362    0.1914332 
H     1.2383637   -3.7934680    0.8059231 
H     3.6215603   -0.1554073    1.2472784 
H     7.0756381    0.6606996    1.4573496 
H     5.6928733   -0.3163495    2.0089017 
H     5.4076136    1.2531064    1.2035029 
H     7.6621897    0.9099638   -0.9196118 
H     6.7137324    0.1366958   -2.2156407 
H     6.0276197    1.5191009   -1.3211848 
H     6.9555352   -2.1582483   -1.0429217 
H     6.4691364   -2.3361331    0.6666909 
H     7.9257738   -1.3840310    0.2404904 
H     5.2513252   -1.4870828   -2.5164436 
H     1.0204144   -1.8721791   -1.7256980 
H     1.7816668   -1.9473910   -5.5110198 
H     2.5104866   -0.5169152   -4.7175408 
H     1.0444428   -1.2572329   -4.0350600 
H     4.7450931   -1.7171765   -4.6542924 
H     4.8912383   -3.3219384   -3.8724033 
H     3.9966785   -3.1475280   -5.4050497 
H     2.0000182   -4.2620497   -4.4484118 
H     2.8158101   -4.4532140   -2.8665147 
H     1.2166351   -3.6682597   -2.9618189 
H     0.2570788   -0.2813659    3.8279349 
H    -0.0110311    1.9257554    4.9422805 
H     0.2423731    4.0267803    3.6558818 
H     4.8593525    3.3853003   -0.8286001 
H     4.8728346    3.6980896    0.9178440 
H     4.3894558    5.6711951   -0.8969091 
H     2.7382311    5.0503556   -0.7986686 
H     4.4722988    6.1171686    1.5292377 
H     3.1886221    7.0153530    0.7165351 
H     2.7818519    4.5114859    2.4839016 
H     2.5005387    6.1966504    2.9370902 
H     0.3074712    5.5894709    2.3984690 
H     0.8241348    6.1264579    0.7875573 
H     3.6654228    2.9316616   -2.4040022 
H     2.0874655    2.1096790   -4.1283802 
H    -0.0816257    1.0880795   -3.4770115 
H    -1.5511835    3.3894782   -1.1836617 
H    -1.9045286    6.9199853   -1.5044041 
H    -0.8528844    5.6213178   -0.8607600 
H    -2.0629286    5.2615878   -2.1235098 
H    -2.7258549    7.6166145    0.6625270 
H    -1.7099920    6.4181210    1.5161187 
H    -3.4660704    6.4947253    1.8265757 
H    -4.4378631    6.8426813   -1.0867630 
H    -5.1230023    5.6425643    0.0484094 
H    -4.5263938    5.1166725   -1.5508082 
H    -4.1105332    4.5118212    2.0974340 
H    -2.7849042    0.4199627    1.6772905 
H    -2.5686672    2.6461529    4.6449120 
H    -3.6669428    1.4490987    5.4010309 
H    -2.5115925    0.9446634    4.1283315 
H    -4.5926543    4.0983600    4.1412555 
H    -5.6832666    2.8650857    4.8130726 
H    -5.9421940    3.4610229    3.1512769 
H    -5.6673132    0.5453087    4.1097118 
H    -4.5327937   -0.0865511    2.8991868 
H    -5.8926222    0.9572683    2.3848724 
H    -1.3277308   -1.5196259   -2.8857268 
H    -2.1197075   -3.5635762   -3.8687412 
H    -0.5637743   -2.8754168   -4.4193279 
H    -1.4281470   -4.0433354   -5.4405295 
H    -4.2403640   -1.8884584   -6.5672362 
H    -3.4605788   -3.4843026   -6.6738158 
H    -4.2956170   -2.9996674   -5.1713972 
H    -2.0018035   -0.7746164   -7.2293865 
H    -1.2518701   -2.3919803   -7.3516098 
H    -0.5152318   -1.1364025   -6.3090252 
H    -3.9045657    0.1027950   -5.9438314 
H    -3.3415924    2.2372255   -2.2435580 
H    -6.3541195    3.6053722   -3.9172514 
H    -6.4013152    1.8705683   -3.4794053 
H    -5.3230061    2.9834510   -2.6018633 
H    -5.9402748    1.2538243   -5.9366133 
H    -4.5680740    2.0161787   -6.8004108 
H    -5.9558887    3.0030578   -6.2842146 
H    -3.2735461    4.0075225   -3.8428962 
H    -2.9410750    3.5491561   -5.5364362 
H    -4.3521492    4.5802911   -5.1461687 
