197
Energy =
C    -1.7609634    2.6188410    1.9281317 
C    -2.8409798    1.6767492    1.8677120 
C    -2.7199740    0.4225862    2.5087230 
H    -3.6796187    1.8504205    1.1823721 
Pd   -1.0554455    0.7498331    0.9881590 
P    -0.9938474   -1.3005035   -0.1015291 
P     1.1194627    1.3017918    0.3689398 
H    -1.1617729    2.6409187    2.8480220 
H    -1.9575212    0.3492732    3.3009800 
C    -1.4422808    6.1744668   -0.4840298 
C    -2.3492817    5.1646872   -0.8465847 
C    -2.4654180    4.0082449   -0.0694188 
C    -1.6847152    3.8371815    1.0994827 
C    -0.7767757    4.8620260    1.4524325 
C    -0.6589914    6.0158041    0.6685985 
H    -1.3503211    7.0781675   -1.0952077 
H    -2.9668183    5.2789209   -1.7437237 
H    -3.1618321    3.2239668   -0.3837363 
H    -0.1540935    4.7443574    2.3459379 
H     0.0475939    6.7976348    0.9623767 
C    -5.3780142   -2.9492088    2.4766334 
C    -4.1747627   -2.9863824    3.1970899 
C    -3.3308128   -1.8725384    3.1996401 
C    -3.6647785   -0.7006953    2.4800479 
C    -4.8794724   -0.6808957    1.7570468 
C    -5.7245470   -1.7944980    1.7564303 
H    -6.0464838   -3.8160391    2.4793588 
H    -3.8950658   -3.8829701    3.7600170 
H    -2.3926404   -1.9053944    3.7624510 
H    -5.1693132    0.2108068    1.1944649 
H    -6.6589114   -1.7641344    1.1875251 
C     0.8439660   -1.9686207    4.8673844 
C     0.9185505   -3.4410024    4.4049213 
C    -0.1264457   -4.2718418    5.1943388 
C     2.3405703   -3.9698553    4.7164982 
C     0.6112352   -3.5819596    2.9014530 
C     0.0323192   -2.5375611    2.1608122 
C     0.8799349   -4.7862424    2.2221703 
C     0.6246321   -4.9738881    0.8472136 
C     1.0035060   -6.3026933    0.1669987 
C     0.1881384   -7.4531546    0.8099548 
C     0.7131571   -6.2733454   -1.3485286 
C     2.5211467   -6.5540315    0.3637999 
C     0.0426493   -3.9097245    0.1398159 
C    -0.2653604   -2.7066050    0.7998002 
C    -2.6831494   -1.7657665   -0.6366796 
C    -3.4926552   -0.7352586   -1.1574125 
C    -4.7613755   -1.0199729   -1.6879387 
C    -5.6614227    0.0712359   -2.3006896 
C    -5.6812410   -0.1206857   -3.8395073 
C    -5.1435158    1.4909076   -1.9864202 
C    -7.1017098   -0.0460941   -1.7420201 
C    -5.1878495   -2.3641131   -1.6694656 
C    -4.4235046   -3.4062992   -1.1109186 
C    -3.1572253   -3.0838831   -0.5864578 
C    -4.9301952   -4.8616352   -1.1467476 
C    -6.4357763   -4.9317848   -0.7927254 
C    -4.1566403   -5.7595342   -0.1545561 
C    -4.7176554   -5.4021611   -2.5857679 
C    -0.0394414   -1.2143729   -1.6835456 
C    -0.7160454   -1.1574822   -2.9172007 
C    -0.0032710   -1.0586341   -4.1183741 
C     1.3939062   -1.0576725   -4.1037796 
C     1.3810590   -1.1840383   -1.6495089 
C     2.0739702   -1.1553953   -2.8808662 
C     2.1788624   -1.2350628   -0.3867825 
C     3.0178332   -2.3531121   -0.1741252 
O     3.0808000   -3.3426642   -1.1373070 
C     4.2691453   -3.3014211   -1.9566904 
C     4.0124744   -2.4844480   -3.2208925 
O     3.4558428   -1.1966533   -2.8804892 
C     3.7702532   -2.4949607    1.0009432 
C     3.7517382   -1.4768022    1.9577672 
C     2.9800880   -0.3280018    1.7437484 
C     2.1867903   -0.1980876    0.5874985 
C     1.4621145    1.8700187   -1.3275049 
C     0.3934304    2.2634239   -2.1462722 
C     0.6330088    2.6894124   -3.4662249 
C    -0.5107391    3.1386834   -4.3960327 
C    -1.8813168    2.6439528   -3.8831689 
C    -0.5161811    4.6891651   -4.4390724 
C    -0.3040445    2.5801283   -5.8251167 
C     1.9696918    2.7241192   -3.9070261 
C     3.0623070    2.3262893   -3.1073875 
C     2.7869974    1.8886365   -1.8033124 
C     4.4927928    2.3680325   -3.6771801 
C     5.5269431    1.8164779   -2.6729224 
C     4.8568120    3.8365861   -4.0139323 
C     4.5556133    1.4995748   -4.9599878 
C     1.8290921    2.5607314    1.4987432 
C     1.5406879    2.4398308    2.8759270 
C     2.0171875    3.3827827    3.7957333 
C     1.6858690    3.3073960    5.2983715 
C     3.0008537    3.2544841    6.1170244 
C     0.8740533    4.5689408    5.6919573 
C     0.8463895    2.0591583    5.6453947 
C     2.8077898    4.4465779    3.2971312 
C     3.1157308    4.5921063    1.9349924 
C     2.5946218    3.6360891    1.0351860 
C     4.0015116    5.7288015    1.3869008 
C     5.1954833    5.1060922    0.6152431 
C     4.5605923    6.6259060    2.5102676 
C     3.1693583    6.6085612    0.4194871 
H     1.1258555   -1.8956524    5.9317719 
H     1.5314509   -1.3302288    4.2848480 
H    -0.1752781   -1.5532478    4.7728565 
H     0.0599139   -4.1986551    6.2808938 
H    -1.1499032   -3.9080493    4.9932928 
H    -0.0841560   -5.3374864    4.9093725 
H     2.5666855   -3.8392809    5.7893508 
H     3.0984731   -3.4215574    4.1312511 
H     2.4428333   -5.0439487    4.4869945 
H    -0.1717622   -1.5668927    2.6200915 
H     1.3277361   -5.6128842    2.7831037 
H    -0.8957730   -7.2867207    0.6772287 
H     0.4501625   -8.4176399    0.3395362 
H     0.3887350   -7.5400569    1.8920132 
H     1.0141148   -7.2332348   -1.8026218 
H     1.2781846   -5.4663605   -1.8469344 
H    -0.3625568   -6.1310402   -1.5574249 
H     2.7873586   -6.6406965    1.4314869 
H     2.8194325   -7.4946193   -0.1328278 
H     3.1009869   -5.7227489   -0.0723935 
H    -0.1459008   -3.9908538   -0.9330435 
H    -3.1073656    0.2901875   -1.1497998 
H    -6.3275685    0.6381669   -4.3159434 
H    -6.0656580   -1.1185857   -4.1129462 
H    -4.6636189   -0.0207509   -4.2573488 
H    -5.0956451    1.6686930   -0.8967759 
H    -5.8276069    2.2421731   -2.4163903 
H    -4.1432490    1.6725236   -2.4129146 
H    -7.7411752    0.7432899   -2.1743991 
H    -7.1095090    0.0711585   -0.6438185 
H    -7.5648869   -1.0171212   -1.9847762 
H    -6.1642959   -2.6059024   -2.0991825 
H    -2.5304292   -3.8592415   -0.1429008 
H    -6.7723568   -5.9831307   -0.7892244 
H    -6.6281875   -4.5041844    0.2058163 
H    -7.0616924   -4.3914716   -1.5231031 
H    -4.2138006   -5.3637083    0.8746656 
H    -4.5885449   -6.7750114   -0.1580425 
H    -3.0909019   -5.8568635   -0.4267418 
H    -5.2748734   -4.7980522   -3.3232652 
H    -5.0681816   -6.4472886   -2.6610256 
H    -3.6482245   -5.3740251   -2.8602362 
H    -1.8077499   -1.2004409   -2.9425859 
H    -0.5433622   -0.9986175   -5.0686328 
H     1.9744067   -0.9921622   -5.0285823 
H     4.5196858   -4.3439168   -2.2189271 
H     5.1030790   -2.8685258   -1.3747490 
H     4.9602624   -2.2982413   -3.7550352 
H     3.3197694   -3.0181397   -3.8967580 
H     4.3704142   -3.3988988    1.1399404 
H     4.3523953   -1.5666751    2.8685288 
H     3.0082114    0.4801170    2.4789650 
H    -0.6216065    2.2180902   -1.7421385 
H    -1.8949377    1.5446843   -3.7758883 
H    -2.6744748    2.9293797   -4.5959306 
H    -2.1378233    3.0905456   -2.9083723 
H    -1.3281396    5.0558320   -5.0931820 
H     0.4411526    5.0762256   -4.8297890 
H    -0.6654253    5.1058580   -3.4277580 
H    -0.2354834    1.4784503   -5.8102747 
H    -1.1546509    2.8667910   -6.4681441 
H     0.6109358    2.9737357   -6.2990375 
H     2.1726523    3.0644555   -4.9270852 
H     3.5903150    1.5341924   -1.1532323 
H     6.5337420    1.8456799   -3.1243993 
H     5.5621163    2.4186145   -1.7474574 
H     5.3007589    0.7700623   -2.4043101 
H     4.8164860    4.4672660   -3.1078888 
H     5.8791178    3.8924387   -4.4286140 
H     4.1657585    4.2675019   -4.7592461 
H     4.2903353    0.4555243   -4.7215495 
H     5.5764201    1.5172277   -5.3817064 
H     3.8652656    1.8657750   -5.7394723 
H     0.9275587    1.5983867    3.2129445 
H     3.6262321    4.1471012    5.9451937 
H     2.7762171    3.2051711    7.1973018 
H     3.5956161    2.3643492    5.8462002 
H     1.4445395    5.4945452    5.5039608 
H     0.6185339    4.5412547    6.7661827 
H    -0.0663352    4.6257095    5.1148874 
H     1.3764577    1.1238408    5.3931590 
H     0.6357773    2.0425858    6.7283655 
H    -0.1269736    2.0598323    5.1213565 
H     3.1891020    5.1839789    4.0076376 
H     2.7892001    3.7344682   -0.0359847 
H     4.8572096    4.5073935   -0.2483981 
H     5.7910187    4.4501683    1.2740393 
H     5.8565375    5.9034491    0.2317920 
H     5.1797093    6.0512037    3.2216134 
H     5.1974690    7.4141377    2.0733386 
H     3.7539602    7.1264798    3.0745569 
H     2.3478885    7.1097553    0.9594849 
H     3.8087485    7.3885094   -0.0309168 
H     2.7267411    6.0148528   -0.3991784 
