200
Energy =
C     0.7189856   -3.0021251    2.0863256 
C     0.5971994   -2.0924372    3.1817857 
C    -0.6168752   -1.4275887    3.4608722 
H     1.5027635   -1.7602008    3.7061965 
Pd    0.0775096   -1.0157371    1.3233950 
P    -0.5083987    1.2200181    1.0067572 
P     0.2863319   -1.4155225   -0.9624838 
H    -0.1598191   -3.6063667    1.8241434 
H    -1.5398118   -1.8461257    3.0271345 
C     4.4791750   -4.6191337    0.7401292 
C     3.2762004   -5.2892765    0.4764413 
C     2.0578006   -4.7574834    0.9165700 
C     2.0168807   -3.5431568    1.6363177 
C     3.2384885   -2.8752268    1.8919107 
C     4.4535312   -3.4080416    1.4528824 
H     5.4311339   -5.0351849    0.3946686 
H     3.2835149   -6.2343210   -0.0754272 
H     1.1228980   -5.2840024    0.6974125 
H     3.2354250   -1.9197187    2.4282745 
H     5.3868969   -2.8763070    1.6653413 
C    -1.2398989    1.4081922    6.6312515 
C    -2.1070843    1.3683106    5.5284120 
C    -1.9043052    0.4356306    4.5075132 
C    -0.8167482   -0.4656821    4.5577341 
C     0.0393023   -0.4267096    5.6813391 
C    -0.1745488    0.4983909    6.7091818 
H    -1.3993588    2.1381035    7.4313554 
H    -2.9434689    2.0713614    5.4595983 
H    -2.5759612    0.4223134    3.6427986 
H     0.8560944   -1.1501224    5.7701640 
H     0.4866826    0.5009291    7.5817984 
C    -1.5022899    5.3039347    5.8830696 
C    -1.1977372    5.4189942    4.3677227 
C    -0.3510546    6.6914432    4.1049649 
C    -2.5376211    5.5568498    3.6128826 
C    -0.3976114    4.1859024    3.9031242 
C    -0.8345357    3.3650676    2.8495220 
C     0.8275487    3.8656645    4.5236712 
C     1.6116433    2.7552145    4.1536006 
C     2.9855762    2.4992413    4.8040258 
C     2.9498014    2.8010169    6.3211138 
C     3.4450144    1.0357361    4.6133983 
C     4.0116667    3.4390162    4.1162167 
C     1.1288296    1.9409541    3.1144259 
C    -0.0693852    2.2573722    2.4506072 
C    -2.2767513    1.4922923    0.6481642 
C    -2.7467377    2.7198926    0.1409309 
C    -4.1169234    2.9092342   -0.0880358 
C    -4.6827433    4.2351979   -0.6306494 
C    -5.6508647    4.8390380    0.4188209 
C    -5.4463368    3.9583329   -1.9507143 
C    -3.5667396    5.2610401   -0.9202246 
C    -4.9927980    1.8336633    0.1921938 
C    -4.5495220    0.5918140    0.6771295 
C    -3.1669856    0.4405944    0.8998902 
C    -5.4929788   -0.5880975    0.9810130 
C    -5.4120124   -0.9145709    2.4951733 
C    -6.9587306   -0.2706984    0.6217256 
C    -5.0431023   -1.8271377    0.1654511 
C     0.4118004    2.0185576   -0.3833546 
C     1.4587283    2.9208952   -0.1052598 
C     2.1952224    3.4961162   -1.1476532 
C     1.9011520    3.1825036   -2.4787262 
C     0.0969908    1.6929092   -1.7263018 
C     0.8475798    2.3008269   -2.7626418 
C    -1.0335769    0.8042450   -2.1356308 
C    -2.0935786    1.4090577   -2.8556858 
O    -2.0095314    2.7682589   -3.0302751 
C    -2.2812126    3.3142498   -4.3358912 
C    -1.2893332    2.8262484   -5.3953051 
C     0.1821282    2.9778721   -4.9997711 
O     0.5370187    1.9474220   -4.0499047 
C    -3.1826423    0.6569505   -3.3196616 
C    -3.2050230   -0.7233158   -3.0971514 
C    -2.1580596   -1.3501268   -2.4111782 
C    -1.0721275   -0.5969208   -1.9212760 
C     1.8313596   -0.8411086   -1.7413531 
C     2.8835099   -0.4033470   -0.9217759 
C     4.0844755    0.0542983   -1.4921855 
C     5.2673598    0.5447669   -0.6350256 
C     6.4019164   -0.5089282   -0.7177132 
C     4.8597434    0.7312657    0.8424733 
C     5.7839845    1.9052195   -1.1655582 
C     4.1874684    0.0304505   -2.8965412 
C     3.1435667   -0.3945641   -3.7442614 
C     1.9508481   -0.8260119   -3.1430268 
C     3.3289908   -0.3570011   -5.2728875 
C     2.0453904   -0.7827389   -6.0163778 
C     4.4775551   -1.3191047   -5.6693244 
C     3.6845038    1.0893035   -5.7028033 
C     0.1206494   -3.1979016   -1.3606947 
C    -0.9513214   -3.8992422   -0.7823225 
C    -1.1470071   -5.2681756   -1.0414635 
C    -2.3572049   -5.9901609   -0.4170499 
C    -2.3827795   -5.7379878    1.1125242 
C    -2.3145117   -7.5135393   -0.6571747 
C    -3.6503954   -5.4198337   -1.0565175 
C    -0.2207674   -5.9105366   -1.8864266 
C     0.8801913   -5.2406667   -2.4610537 
C     1.0398197   -3.8715350   -2.1813221 
C     1.8389460   -5.9704212   -3.4229699 
C     1.1676279   -5.9994141   -4.8222131 
C     3.1978492   -5.2409072   -3.5341906 
C     2.1038684   -7.4221062   -2.9564036 
H    -2.0553689    6.1952883    6.2286645 
H    -0.5796113    5.2271103    6.4834143 
H    -2.1186935    4.4132276    6.0921345 
H    -0.9037962    7.5923933    4.4260031 
H     0.6034608    6.6654511    4.6586548 
H    -0.1191300    6.7914778    3.0300188 
H    -3.0861961    6.4382072    3.9870988 
H    -3.1826044    4.6719515    3.7596591 
H    -2.3854916    5.6964026    2.5279303 
H    -1.7751328    3.5757085    2.3383152 
H     1.1857032    4.5118918    5.3303910 
H     3.9277272    2.5633215    6.7747665 
H     2.7447421    3.8648311    6.5287688 
H     2.1760425    2.1970117    6.8241981 
H     2.7024728    0.3308799    5.0252407 
H     3.6112340    0.7872218    3.5512452 
H     4.4015264    0.8738229    5.1392471 
H     4.0688895    3.2300275    3.0331036 
H     3.7263776    4.4976914    4.2454611 
H     5.0181660    3.2967380    4.5497786 
H     1.6889508    1.0562817    2.7934756 
H    -2.0267338    3.5060891   -0.0961850 
H    -5.1223149    5.0387052    1.3677588 
H    -6.4943449    4.1605205    0.6343933 
H    -6.0699317    5.7919340    0.0491000 
H    -4.7689258    3.5077726   -2.6956133 
H    -6.2951233    3.2696854   -1.7988741 
H    -5.8472947    4.8997502   -2.3664568 
H    -3.0184514    5.5364315   -0.0017591 
H    -4.0089477    6.1848894   -1.3313530 
H    -2.8419911    4.8675902   -1.6530971 
H    -6.0610528    1.9783467    0.0121365 
H    -2.7629738   -0.5133865    1.2572225 
H    -4.3903538   -1.2104462    2.7930617 
H    -6.0895971   -1.7503273    2.7450762 
H    -5.7023407   -0.0399644    3.1030502 
H    -7.0722855   -0.0369382   -0.4516155 
H    -7.5945007   -1.1450390    0.8436782 
H    -7.3481007    0.5807065    1.2070171 
H    -5.0834221   -1.6219837   -0.9176879 
H    -5.6989418   -2.6886627    0.3832934 
H    -4.0077847   -2.1221825    0.4108492 
H     1.6922953    3.1848773    0.9293008 
H     3.0060264    4.1946976   -0.9174507 
H     2.4840768    3.6089780   -3.3004359 
H    -3.3217805    3.1003781   -4.6463413 
H    -2.1962235    4.4030402   -4.1862602 
H    -1.4738865    1.7624085   -5.6307598 
H    -1.4754347    3.3984705   -6.3236290 
H     0.3864803    3.9759036   -4.5694534 
H     0.8299156    2.8385662   -5.8823724 
H    -4.0032394    1.1485207   -3.8492574 
H    -4.0445461   -1.3210375   -3.4669460 
H    -2.1831717   -2.4334368   -2.2746153 
H     2.7381063   -0.4104603    0.1618858 
H     7.2643804   -0.1981289   -0.1006742 
H     6.0485719   -1.4907501   -0.3584249 
H     6.7530724   -0.6349276   -1.7567413 
H     4.5658019   -0.2244409    1.3083013 
H     5.7102373    1.1328754    1.4200194 
H     4.0169465    1.4386428    0.9399271 
H     4.9810174    2.6614880   -1.1463112 
H     6.6172841    2.2652245   -0.5365077 
H     6.1591405    1.8311992   -2.2003806 
H     5.1212141    0.3718238   -3.3551338 
H     1.0968988   -1.1303675   -3.7522228 
H     1.7634508   -1.8248105   -5.7809742 
H     1.1977192   -0.1245904   -5.7579781 
H     2.2092902   -0.7223731   -7.1062439 
H     4.6333013   -1.3005503   -6.7628418 
H     4.2398149   -2.3556267   -5.3717015 
H     5.4297908   -1.0374148   -5.1871562 
H     4.6344040    1.4295682   -5.2559285 
H     2.8886617    1.7839816   -5.3860018 
H     3.7899960    1.1484082   -6.8007748 
H    -1.6424861   -3.3639226   -0.1206566 
H    -1.4520052   -6.0951803    1.5878516 
H    -3.2311497   -6.2739491    1.5732280 
H    -2.5029608   -4.6663511    1.3521592 
H    -3.1834184   -7.9907370   -0.1722654 
H    -2.3595547   -7.7606227   -1.7321359 
H    -1.4007291   -7.9662971   -0.2333559 
H    -3.7393392   -4.3330170   -0.8848696 
H    -4.5423795   -5.9062795   -0.6226365 
H    -3.6566221   -5.5948020   -2.1465525 
H    -0.3559616   -6.9716722   -2.1034644 
H     1.8872827   -3.3224536   -2.5939543 
H     0.9804495   -4.9737497   -5.1867968 
H     1.8184247   -6.5141617   -5.5519095 
H     0.2003018   -6.5306740   -4.7868428 
H     3.8819101   -5.8259413   -4.1726954 
H     3.6707317   -5.1151081   -2.5444941 
H     3.0965118   -4.2425413   -3.9940949 
H     1.1880761   -8.0372560   -2.9613555 
H     2.5255498   -7.4437635   -1.9364849 
H     2.8255750   -7.9076892   -3.6358550 
