200
Energy =
C     3.4389010    0.2537019    1.4464279 
C     3.4248544    1.5652223    0.8764983 
C     2.5051041    2.5456600    1.3087552 
H     4.0056499    1.7616786   -0.0337225 
Pd    1.4290556    0.6618308    0.5979283 
P    -0.4196483    1.5250692   -0.5263889 
P     0.4708932   -1.4497407    0.8342867 
H     3.1890647    0.1561460    2.5112597 
H     2.0232977    2.3920151    2.2880963 
C     5.6704576   -3.0504313   -0.1887738 
C     5.2426565   -3.0655018    1.1463907 
C     4.5237909   -1.9852062    1.6730109 
C     4.2149169   -0.8630855    0.8721135 
C     4.6498273   -0.8631599   -0.4753208 
C     5.3728519   -1.9395922   -0.9964719 
H     6.2334631   -3.8950675   -0.5989316 
H     5.4716185   -3.9233641    1.7861616 
H     4.1900571   -2.0095029    2.7159653 
H     4.4084548   -0.0168402   -1.1278590 
H     5.7043482   -1.9152252   -2.0398449 
C     2.0870086    6.5279969   -0.2544437 
C     3.2587881    5.8000745   -0.5122108 
C     3.4081970    4.5018334   -0.0123301 
C     2.3875773    3.9075851    0.7633962 
C     1.2236957    4.6624347    1.0357676 
C     1.0722536    5.9551811    0.5277304 
H     1.9717235    7.5421001   -0.6507948 
H     4.0673865    6.2527878   -1.0949828 
H     4.3405042    3.9593333   -0.1974622 
H     0.4201942    4.2174199    1.6305643 
H     0.1565962    6.5159224    0.7391415 
C    -1.8888126   -6.0772000   -0.6024560 
C    -1.0008437   -5.8762202   -1.8484332 
C    -1.9179829   -5.8226180   -3.0971153 
C    -0.0256138   -7.0750307   -1.9658392 
C    -0.1880646   -4.5704896   -1.7669269 
C    -0.2333494   -3.7254305   -0.6472060 
C     0.6245322   -4.1779750   -2.8504181 
C     1.3719769   -2.9847689   -2.8665317 
C     2.2255088   -2.6209197   -4.0967300 
C     2.7335474   -1.1650400   -4.0237525 
C     3.4424917   -3.5805503   -4.1476896 
C     1.3903461   -2.7726424   -5.3922721 
C     1.3207639   -2.1708458   -1.7209903 
C     0.5275923   -2.5421938   -0.6239717 
C     1.2237408   -2.3744502    2.2277263 
C     1.4022587   -1.6879139    3.4408226 
C     1.9800302   -2.3219338    4.5565433 
C     2.1279791   -1.5426637    5.8779614 
C     0.7110295   -1.2830400    6.4533689 
C     2.8328781   -0.1882780    5.6089108 
C     2.9539628   -2.3204230    6.9235795 
C     2.3794619   -3.6639114    4.4069481 
C     2.2318884   -4.3751723    3.1965595 
C     1.6520524   -3.7068863    2.1035550 
C     2.6427237   -5.8584401    3.1070535 
C     1.5696377   -6.6933069    3.8554800 
C     2.7212494   -6.3435363    1.6422347 
C     4.0224442   -6.0899036    3.7709044 
C    -1.3251820   -1.3283382    1.2749696 
C    -1.7561629   -1.5582059    2.5969335 
C    -3.1084603   -1.4277004    2.9351894 
C    -4.0532209   -1.0779497    1.9655106 
C    -2.2692579   -0.9728605    0.2783094 
C    -3.6343039   -0.8691714    0.6432687 
C    -1.9408319   -0.7834744   -1.1680069 
C    -2.4872116   -1.7189869   -2.0808607 
O    -3.1953051   -2.7678037   -1.5542639 
C    -4.5589587   -2.9845029   -1.9826167 
C    -5.5115457   -2.7295978   -0.8111615 
C    -5.7377481   -1.2494408   -0.4911604 
O    -4.5040819   -0.5165967   -0.3586552 
C    -2.2633591   -1.6062097   -3.4611232 
C    -1.5169272   -0.5292587   -3.9506161 
C    -0.9818965    0.4197009   -3.0712659 
C    -1.1856331    0.3006174   -1.6812128 
C    -1.7774812    2.1030134    0.5470497 
C    -3.0586973    2.3782407    0.0293997 
C    -4.0738717    2.8486908    0.8743229 
C    -5.4881294    3.1724284    0.3571337 
C    -6.5229697    2.3305240    1.1462604 
C    -5.6402064    2.8472997   -1.1437754 
C    -5.7692083    4.6822190    0.5691694 
C    -3.7698662    3.0238380    2.2449631 
C    -2.5091539    2.7337881    2.7932798 
C    -1.5140635    2.2640506    1.9137298 
C    -2.1739422    2.9088193    4.2875716 
C    -1.0235414    3.9392413    4.4284620 
C    -1.7144250    1.5482004    4.8701604 
C    -3.3844158    3.4078506    5.1024291 
C     0.0514490    2.9006648   -1.6411412 
C     1.2908852    2.7786059   -2.3019434 
C     1.6708155    3.6993913   -3.2890510 
C     2.9651574    3.5215529   -4.1073408 
C     3.6722993    4.8800046   -4.3301552 
C     2.5749250    2.9125833   -5.4805540 
C     3.9608848    2.5696116   -3.4075122 
C     0.7834494    4.7637814   -3.5675039 
C    -0.4424961    4.9314500   -2.9000291 
C    -0.7983229    3.9756135   -1.9264199 
C    -1.4155620    6.0869373   -3.2090361 
C    -1.6686763    6.9073420   -1.9184447 
C    -0.8672470    7.0392376   -4.2917644 
C    -2.7567917    5.4902374   -3.7106666 
H    -2.4716723   -7.0086704   -0.7071022 
H    -2.5965984   -5.2393321   -0.4777024 
H    -1.2857977   -6.1653180    0.3191031 
H    -2.5375097   -6.7350886   -3.1577081 
H    -2.5843996   -4.9457984   -3.0391478 
H    -1.3362894   -5.7500294   -4.0321438 
H    -0.5891294   -8.0227175   -2.0343811 
H     0.6360362   -7.1291191   -1.0833753 
H     0.6119870   -6.9946923   -2.8633625 
H    -0.8756157   -3.9607649    0.2044293 
H     0.6653301   -4.8285855   -3.7300061 
H     3.2966209   -0.9159367   -4.9397989 
H     1.8946499   -0.4521522   -3.9341651 
H     3.4109196   -1.0127653   -3.1670836 
H     4.0428101   -3.4973586   -3.2253557 
H     3.1167391   -4.6307705   -4.2466504 
H     4.0890584   -3.3400636   -5.0110390 
H     1.9975212   -2.4860446   -6.2690532 
H     1.0531441   -3.8111365   -5.5499257 
H     0.4980229   -2.1244355   -5.3594024 
H     1.8784779   -1.2319511   -1.6682590 
H     1.0839863   -0.6408528    3.5107753 
H     0.1936109   -2.2358206    6.6614750 
H     0.0899102   -0.7048563    5.7476282 
H     0.7760385   -0.7113403    7.3965615 
H     3.8271901   -0.3438735    5.1539355 
H     2.2425362    0.4578404    4.9347998 
H     2.9703671    0.3645939    6.5546919 
H     2.4664657   -3.2689212    7.2087777 
H     3.0575381   -1.7147508    7.8402123 
H     3.9687703   -2.5479454    6.5522402 
H     2.8250178   -4.1783789    5.2609358 
H     1.5379913   -4.2146505    1.1449235 
H     1.5001373   -6.3937610    4.9159369 
H     1.8222644   -7.7682364    3.8175183 
H     0.5752674   -6.5537920    3.3957343 
H     3.4264532   -5.7331035    1.0507662 
H     3.0682966   -7.3907551    1.6161851 
H     1.7370099   -6.3118071    1.1429057 
H     4.8044923   -5.4786565    3.2882444 
H     4.3110119   -7.1513667    3.6774540 
H     4.0144029   -5.8459577    4.8466589 
H    -1.0397622   -1.8571930    3.3654193 
H    -3.4280877   -1.6065491    3.9669831 
H    -5.1083136   -0.9683898    2.2308358 
H    -4.7923144   -2.3334383   -2.8454678 
H    -4.6303501   -4.0363847   -2.3089300 
H    -6.4951865   -3.1814660   -1.0395290 
H    -5.1141140   -3.2563240    0.0754053 
H    -6.2556429   -0.7403116   -1.3203907 
H    -6.3653051   -1.1364643    0.4135356 
H    -2.6691061   -2.3646719   -4.1371111 
H    -1.3485644   -0.4260292   -5.0274052 
H    -0.4122399    1.2626243   -3.4703586 
H    -3.2546923    2.1903250   -1.0284609 
H    -7.5437144    2.5326376    0.7759603 
H    -6.3129356    1.2546181    1.0232784 
H    -6.5057518    2.5617127    2.2250875 
H    -5.4284158    1.7835172   -1.3461218 
H    -6.6728912    3.0630179   -1.4680283 
H    -4.9637333    3.4610871   -1.7646703 
H    -5.0377997    5.2969328    0.0146824 
H    -6.7808883    4.9383574    0.2069953 
H    -5.7107336    4.9624433    1.6352692 
H    -4.5596254    3.3911195    2.9048979 
H    -0.5199339    1.9973298    2.2903520 
H    -0.1017236    3.5905271    3.9298645 
H    -1.3050265    4.9096954    3.9837787 
H    -0.7836879    4.1031791    5.4940500 
H    -1.4403656    1.6592321    5.9343525 
H    -0.8345782    1.1527017    4.3333423 
H    -2.5171304    0.7958611    4.7923393 
H    -4.2306964    2.7004987    5.0482601 
H    -3.7327698    4.3957162    4.7533003 
H    -3.1016670    3.5104630    6.1642567 
H     1.9409157    1.9358131   -2.0437899 
H     3.0548858    5.5790659   -4.9189775 
H     4.6140780    4.7273401   -4.8856271 
H     3.9111698    5.3616179   -3.3669774 
H     3.4721496    2.7695856   -6.1095721 
H     2.0851737    1.9314508   -5.3478674 
H     1.8757973    3.5731960   -6.0223943 
H     4.2183356    2.9360788   -2.3986358 
H     4.8924356    2.5057295   -3.9954836 
H     3.5613937    1.5456432   -3.3159819 
H     1.0662788    5.4844188   -4.3373888 
H    -1.7459793    4.0697629   -1.3890486 
H    -0.7307367    7.3604433   -1.5547544 
H    -2.3897551    7.7196234   -2.1191969 
H    -2.0823861    6.2809567   -1.1085675 
H    -1.5922899    7.8510558   -4.4736630 
H    -0.7038770    6.5178349   -5.2513260 
H     0.0850031    7.5045082   -3.9810268 
H    -3.4707403    6.2993165   -3.9471069 
H    -3.2232242    4.8408637   -2.9491778 
H    -2.6016242    4.8875131   -4.6225431 
