200
Energy =
C     0.8339238   -2.9256645    2.1621922 
C     0.7182498   -1.9833861    3.2313236 
C    -0.5025929   -1.3332105    3.5143106 
H     1.6276127   -1.6147199    3.7232300 
Pd    0.1363002   -0.9807997    1.3511756 
P    -0.4540845    1.2453933    0.9909058 
P     0.2379807   -1.4657387   -0.9262972 
H    -0.0357662   -3.5583284    1.9411180 
H    -1.4256023   -1.7839863    3.1142264 
C     4.5935114   -4.4636472    0.7232064 
C     4.5634541   -3.2685184    1.4618606 
C     3.3489800   -2.7616248    1.9320747 
C     2.1323234   -3.4431458    1.6871375 
C     2.1781719   -4.6449936    0.9459270 
C     3.3957020   -5.1469148    0.4695915 
H     5.5447225   -4.8581374    0.3514573 
H     5.4928136   -2.7278134    1.6690803 
H     3.3441565   -1.8163259    2.4860426 
H     1.2477613   -5.1848326    0.7391592 
H     3.4075077   -6.0806079   -0.1011045 
C    -1.1315684    1.6194560    6.5732945 
C    -2.0323988    1.4958081    5.5040066 
C    -1.8256895    0.5249931    4.5198856 
C    -0.7011482   -0.3300729    4.5731481 
C     0.1918107   -0.2026445    5.6608033 
C    -0.0257072    0.7596887    6.6526671 
H    -1.2952838    2.3756557    7.3475803 
H    -2.8983708    2.1622551    5.4340762 
H    -2.5245330    0.4437083    3.6801531 
H     1.0420537   -0.8859861    5.7521243 
H     0.6641799    0.8306830    7.4997919 
C     3.2396544    2.9077575    6.1069992 
C     3.2172311    2.5896715    4.5929455 
C     3.6622251    1.1218290    4.4021244 
C     4.2216238    3.5153819    3.8560654 
C     1.8202751    2.8451196    3.9934430 
C     1.2843658    2.0093364    2.9985045 
C     1.0636499    3.9726576    4.3690688 
C    -0.1866028    4.2873266    3.7976817 
C    -0.9553692    5.5391835    4.2651266 
C    -1.2179726    5.4494541    5.7899395 
C    -0.1002015    6.7960730    3.9591172 
C    -2.3144628    5.6850781    3.5471559 
C    -0.6796145    3.4414400    2.7896301 
C     0.0580803    2.3180556    2.3836192 
C    -2.2290884    1.5281698    0.6807645 
C    -2.7064000    2.7525122    0.1814473 
C    -4.0825093    2.9393258   -0.0325340 
C    -4.6563542    4.2596552   -0.5807307 
C    -5.6027828    4.8789072    0.4789520 
C    -5.4428931    3.9654709   -1.8837587 
C    -3.5440471    5.2785022   -0.9074252 
C    -4.9462234    1.8628385    0.2590799 
C    -4.4928936    0.6140998    0.7285480 
C    -3.1121911    0.4664128    0.9368650 
C    -5.4870101   -0.5315395    0.9972624 
C    -6.3145816   -0.8100758   -0.2829806 
C    -4.7614907   -1.8352191    1.3954393 
C    -6.4327840   -0.1157329    2.1527478 
C     0.4198593    1.9819748   -0.4611473 
C     1.4942560    2.8724227   -0.2624614 
C     2.1873610    3.3985630   -1.3588291 
C     1.8195977    3.0542934   -2.6638953 
C     0.0353844    1.6181580   -1.7750824 
C     0.7395154    2.1825327   -2.8673711 
C    -1.1217730    0.7287751   -2.1016680 
C    -2.2138496    1.3189619   -2.7840113 
O    -2.1606769    2.6720350   -2.9952066 
C    -2.2745962    3.1823680   -4.3431024 
C    -0.9451357    3.8128170   -4.7667768 
C     0.1483701    2.8038150   -5.1293183 
O     0.3298639    1.7934484   -4.1183360 
C    -3.3264450    0.5602582   -3.1766118 
C    -3.3418049   -0.8151519   -2.9241528 
C    -2.2667051   -1.4269478   -2.2680612 
C    -1.1563534   -0.6664150   -1.8482565 
C     1.7500891   -0.9468084   -1.8018632 
C     1.8026957   -0.9871124   -3.2071713 
C     2.9704002   -0.5945899   -3.8802211 
C     3.0881901   -0.6309605   -5.4157080 
C     4.1909744   -1.6450610   -5.8136190 
C     3.4670742    0.7802439   -5.9323221 
C     1.7611741   -1.0515700   -6.0817899 
C     4.0563924   -0.1466617   -3.0999713 
C     4.0196106   -0.0645923   -1.6945038 
C     2.8437695   -0.4884009   -1.0503654 
C     5.2450246    0.4492064   -0.9141573 
C     6.3602532   -0.6252667   -0.9933054 
C     4.9037910    0.7143507    0.5682940 
C     5.7569529    1.7736776   -1.5328935 
C     0.0188943   -3.2601835   -1.2350120 
C     0.8656334   -3.9911042   -2.0854760 
C     0.6593955   -5.3677158   -2.2859225 
C     1.5291062   -6.1802537   -3.2657661 
C     0.6852424   -6.4494163   -4.5401518 
C     1.9480905   -7.5322833   -2.6372672 
C     2.8089310   -5.4141692   -3.6675130 
C    -0.4082538   -5.9861016   -1.5997770 
C    -1.2605191   -5.2855308   -0.7249546 
C    -1.0237679   -3.9091710   -0.5519712 
C    -2.4352989   -5.9510460    0.0183302 
C    -3.7607180   -5.4038544   -0.5735118 
C    -2.4221782   -7.4867781   -0.1293752 
C    -2.3615687   -5.6049449    1.5279621 
H     4.2342856    2.6752107    6.5257083 
H     2.4862504    2.3086422    6.6457874 
H     3.0411428    3.9734150    6.3112153 
H     4.6374999    0.9608689    4.8925327 
H     2.9334502    0.4248954    4.8511468 
H     3.7855786    0.8602929    3.3372686 
H     5.2430270    3.3727266    4.2531063 
H     3.9469442    4.5771136    3.9829516 
H     4.2367720    3.2929238    2.7741664 
H     1.8231876    1.1127635    2.6739036 
H     1.4639702    4.6365886    5.1410423 
H    -1.7438021    6.3555537    6.1397933 
H    -1.8447934    4.5731974    6.0268759 
H    -0.2795651    5.3614714    6.3639257 
H     0.8685883    6.7675706    4.4871586 
H     0.1035109    6.8764586    2.8767972 
H    -0.6329628    7.7088314    4.2804801 
H    -2.1917313    5.8011314    2.4557134 
H    -2.9695005    4.8145345    3.7303344 
H    -2.8372060    6.5825584    3.9200546 
H    -1.6425749    3.6456689    2.3193789 
H    -1.9919148    3.5395972   -0.0687117 
H    -5.0546197    5.0943114    1.4132935 
H    -6.4398460    4.2020383    0.7232808 
H    -6.0316852    5.8251645    0.1034734 
H    -4.7784978    3.4955797   -2.6285526 
H    -6.2945672    3.2862974   -1.7071398 
H    -5.8435442    4.9025316   -2.3095725 
H    -2.9740978    5.5641355   -0.0054602 
H    -3.9930022    6.1984411   -1.3199571 
H    -2.8381603    4.8733946   -1.6525759 
H    -6.0206084    1.9988133    0.0952694 
H    -2.6928936   -0.4848877    1.2758661 
H    -6.8971740    0.0736822   -0.5945647 
H    -7.0269865   -1.6352702   -0.1054213 
H    -5.6519179   -1.0936859   -1.1184325 
H    -4.1981568   -1.7214087    2.3391771 
H    -5.4975367   -2.6435499    1.5452148 
H    -4.0593261   -2.1605079    0.6072765 
H    -5.8592226    0.0847412    3.0750179 
H    -7.1589644   -0.9208408    2.3645337 
H    -7.0010376    0.7961858    1.9004544 
H     1.7813688    3.1666908    0.7502360 
H     3.0199397    4.0897173   -1.1928164 
H     2.3681052    3.4567359   -3.5200350 
H    -2.5771060    2.3708450   -5.0306426 
H    -3.0717327    3.9456808   -4.3307994 
H    -1.1160790    4.4585025   -5.6487457 
H    -0.6010227    4.4711862   -3.9486388 
H     1.1009950    3.3242098   -5.3453277 
H    -0.1271200    2.2273817   -6.0275153 
H    -4.1685003    1.0524399   -3.6720562 
H    -4.1974541   -1.4195790   -3.2421849 
H    -2.2879605   -2.5063352   -2.1008093 
H     0.9177481   -1.3051867   -3.7629106 
H     4.2980486   -1.6841023   -6.9124877 
H     5.1707954   -1.3677003   -5.3874678 
H     3.9390925   -2.6582612   -5.4542927 
H     4.4430039    1.1141745   -5.5402899 
H     3.5310649    0.7802890   -7.0350097 
H     2.7051492    1.5161519   -5.6256818 
H     0.9425054   -0.3620257   -5.8116243 
H     1.8749834   -1.0392313   -7.1796106 
H     1.4646417   -2.0753436   -5.7911378 
H     4.9710493    0.1645341   -3.6148931 
H     2.7507861   -0.4532317    0.0386908 
H     6.0088952   -1.5828660   -0.5722576 
H     6.6644081   -0.8059267   -2.0391026 
H     7.2527148   -0.2989812   -0.4290938 
H     5.7838575    1.1303882    1.0885092 
H     4.6166851   -0.2124690    1.0923375 
H     4.0755524    1.4387675    0.6656489 
H     4.9651946    2.5418950   -1.5200442 
H     6.0896239    1.6429500   -2.5766322 
H     6.6193613    2.1522074   -0.9562251 
H     1.6918982   -3.4795210   -2.5810111 
H    -0.2288988   -7.0202777   -4.3002992 
H     1.2711595   -7.0316667   -5.2738962 
H     0.3797356   -5.5000975   -5.0145049 
H     2.5846779   -8.0938873   -3.3430346 
H     2.5215085   -7.3780807   -1.7069920 
H     1.0792924   -8.1694790   -2.4001970 
H     2.5781630   -4.4869677   -4.2206850 
H     3.4272648   -6.0455528   -4.3283221 
H     3.4149676   -5.1459256   -2.7840260 
H    -0.5757321   -7.0541817   -1.7544575 
H    -1.6586053   -3.3263259    0.1258480 
H    -3.8382848   -5.6461266   -1.6478058 
H    -4.6283116   -5.8490930   -0.0542928 
H    -3.8271824   -4.3071808   -0.4653920 
H    -3.2608828   -7.9223467    0.4404250 
H    -1.4858648   -7.9240865    0.2600209 
H    -2.5414189   -7.7989687   -1.1815540 
H    -2.4598283   -4.5196152    1.7088731 
H    -1.4046093   -5.9424277    1.9640778 
H    -3.1823069   -6.1029229    2.0733704 
