200
Energy =
C     3.3858245    0.3961177    1.6722667 
C     3.4595127    1.5823981    0.8830084 
C     2.5609462    2.6495338    1.1146517 
H     4.1033399    1.6008909   -0.0064556 
Pd    1.4499827    0.7193602    0.6151859 
P    -0.4148087    1.5396064   -0.5419160 
P     0.5129171   -1.3956153    0.8775309 
H     3.0482508    0.5148793    2.7121027 
H     2.0429544    2.6606882    2.0871568 
C     5.6943870   -3.1715877    0.9883977 
C     5.3996517   -2.7486712    2.2925985 
C     4.6537716   -1.5834488    2.5009502 
C     4.1900001   -0.8146967    1.4130463 
C     4.5000372   -1.2482523    0.1046231 
C     5.2432766   -2.4138158   -0.1056700 
H     6.2710375   -4.0875495    0.8222278 
H     5.7456865   -3.3284988    3.1540283 
H     4.4225979   -1.2606344    3.5198345 
H     4.1302967   -0.6768441   -0.7541111 
H     5.4654571   -2.7383716   -1.1269452 
C     2.4402575    6.4239441   -0.9335769 
C     1.3605265    6.0034218   -0.1418304 
C     1.4133485    4.7752415    0.5229141 
C     2.5392908    3.9304830    0.3928478 
C     3.6237584    4.3688252   -0.3998655 
C     3.5761253    5.6075964   -1.0481406 
H     2.4013326    7.3877133   -1.4512708 
H     0.4715077    6.6346254   -0.0432279 
H     0.5632035    4.4466425    1.1316695 
H     4.5264135    3.7546953   -0.4800815 
H     4.4361140    5.9442259   -1.6359294 
C     3.6385664   -2.2635579   -3.6358510 
C     2.1706087   -2.4580373   -4.0913832 
C     2.1491436   -3.5083904   -5.2211090 
C     1.6302200   -1.1201861   -4.6546654 
C     1.3083890   -2.8800509   -2.8841378 
C     1.2747683   -2.0703984   -1.7290247 
C     0.5297786   -4.0490509   -2.8780335 
C    -0.2815341   -4.4331610   -1.7851301 
C    -1.1201701   -5.7226053   -1.8711513 
C    -1.9340994   -5.9640170   -0.5824987 
C    -2.1080203   -5.5996721   -3.0593848 
C    -0.1807943   -6.9339099   -2.0996763 
C    -0.2957885   -3.6027504   -0.6569281 
C     0.4879107   -2.4309957   -0.6280291 
C     1.3195069   -2.4185060    2.1728721 
C     1.7455286   -3.7296152    1.9124278 
C     2.3072298   -4.5184368    2.9341344 
C     2.7160299   -5.9846265    2.6887908 
C     1.6778809   -6.8958574    3.3952348 
C     4.1249726   -6.2631705    3.2675500 
C     2.7394730   -6.3291066    1.1836225 
C     2.4239737   -3.9480048    4.2148545 
C     2.0479868   -2.6190335    4.5001022 
C     1.5084746   -1.8557912    3.4513432 
C     2.2072460   -2.0615032    5.9286256 
C     1.2249876   -2.8179569    6.8608679 
C     3.6590091   -2.2761775    6.4262924 
C     1.8884915   -0.5531709    6.0000332 
C    -1.2576135   -1.2541930    1.4171588 
C    -1.6014073   -1.4540349    2.7702794 
C    -2.9163057   -1.2672054    3.2115907 
C    -3.9154483   -0.8865086    2.3110704 
C    -2.2628591   -0.8824759    0.4863668 
C    -3.5913521   -0.7209352    0.9570049 
C    -2.0549731   -0.7322175   -0.9872635 
C    -2.7310328   -1.6540067   -1.8246115 
O    -3.4194986   -2.6574725   -1.1890432 
C    -4.7478103   -2.9807039   -1.6444179 
C    -5.7199152   -1.8059547   -1.5048966 
C    -5.7260780   -1.1559812   -0.1190152 
O    -4.5390077   -0.3462614    0.0404960 
C    -2.6598388   -1.5576225   -3.2221165 
C    -1.9233576   -0.5199145   -3.8011753 
C    -1.2528535    0.4094797   -2.9977520 
C    -1.3118994    0.3107492   -1.5931805 
C    -1.6909496    2.1820355    0.5968733 
C    -2.9943077    2.4698006    0.1549339 
C    -3.9524532    2.9659034    1.0549824 
C    -5.3912488    3.3037367    0.6204824 
C    -6.3865239    2.4931028    1.4895076 
C    -5.6428741    2.9507309   -0.8607901 
C    -5.6344899    4.8216583    0.8193754 
C    -3.5642567    3.1408475    2.3994818 
C    -2.2773253    2.8264866    2.8787364 
C    -1.3413813    2.3489886    1.9472029 
C    -1.9338459    2.9989121    4.3704093 
C    -0.5096932    2.4957593    4.6904197 
C    -2.9379100    2.1856589    5.2264205 
C    -2.0262803    4.5012194    4.7402543 
C    -0.0022387    2.8642746   -1.7378368 
C     1.1817612    2.7055652   -2.4801419 
C     1.4941048    3.5883539   -3.5291778 
C     2.7134413    3.3656266   -4.4456311 
C     3.4316866    4.7028555   -4.7479524 
C     2.1957688    2.7523830   -5.7741461 
C     3.7383131    2.3979554   -3.8125274 
C     0.6015160    4.6518024   -3.7696282 
C    -0.5682702    4.8635713   -3.0125280 
C    -0.8634985    3.9437408   -1.9918144 
C    -1.4941606    6.0522052   -3.3382340 
C    -2.0934103    5.8400621   -4.7529493 
C    -2.6536117    6.1754662   -2.3260404 
C    -0.6832473    7.3726431   -3.3128259 
H     4.2712707   -1.9833840   -4.4966578 
H     4.0400179   -3.1934544   -3.1973860 
H     3.7279237   -1.4629944   -2.8821497 
H     2.7863397   -3.1681841   -6.0556066 
H     2.5371385   -4.4838809   -4.8788294 
H     1.1309944   -3.6588631   -5.6210474 
H     2.2678887   -0.7685956   -5.4853142 
H     1.6091422   -0.3329525   -3.8817929 
H     0.6011553   -1.2417190   -5.0314444 
H     1.8523849   -1.1406258   -1.6801264 
H     0.5410072   -4.6931928   -3.7605464 
H    -2.5321931   -6.8857492   -0.6874915 
H    -1.2764015   -6.0919491    0.2960882 
H    -2.6246117   -5.1266205   -0.3823625 
H    -2.7713959   -4.7312917   -2.9133270 
H    -1.5797976   -5.4704037   -4.0197729 
H    -2.7311502   -6.5084886   -3.1363982 
H    -0.7695534   -7.8663504   -2.1628529 
H     0.3947097   -6.8353062   -3.0362774 
H     0.5382713   -7.0355132   -1.2681598 
H    -0.9225031   -3.8414049    0.2052713 
H     1.6320125   -4.1371835    0.9074414 
H     0.6647185   -6.7190320    2.9925380 
H     1.6501540   -6.7043609    4.4822342 
H     1.9318927   -7.9600468    3.2413368 
H     4.8819845   -5.6302784    2.7748013 
H     4.1740015   -6.0764726    4.3539584 
H     4.3978511   -7.3201294    3.1013715 
H     1.7395989   -6.2408519    0.7243049 
H     3.0745733   -7.3716388    1.0467045 
H     3.4329422   -5.6709036    0.6305494 
H     2.8336539   -4.5596434    5.0249789 
H     1.2219915   -0.8135350    3.6187094 
H     0.1817492   -2.6756196    6.5272168 
H     1.3118789   -2.4443659    7.8969303 
H     1.4331095   -3.9017829    6.8708994 
H     4.3832097   -1.7488518    5.7806446 
H     3.7700863   -1.8849362    7.4528950 
H     3.9351400   -3.3439843    6.4451675 
H     2.5455464    0.0355416    5.3340376 
H     2.0437225   -0.1873132    7.0294389 
H     0.8397609   -0.3400030    5.7291263 
H    -0.8431864   -1.7780509    3.4859556 
H    -3.1607945   -1.4220329    4.2674879 
H    -4.9430514   -0.7168506    2.6457864 
H    -4.7304750   -3.3520103   -2.6869788 
H    -5.0474960   -3.8211619   -0.9973077 
H    -5.4860112   -1.0249303   -2.2509926 
H    -6.7364999   -2.1765126   -1.7351522 
H    -6.5928662   -0.4802343   -0.0182026 
H    -5.7776230   -1.9143507    0.6840545 
H    -3.1757609   -2.2892324   -3.8498526 
H    -1.8721202   -0.4320350   -4.8912503 
H    -0.6918718    1.2210603   -3.4669121 
H    -3.2591176    2.2701486   -0.8855199 
H    -7.4249402    2.6937846    1.1711421 
H    -6.1879235    1.4130780    1.3854714 
H    -6.3082549    2.7541476    2.5588287 
H    -5.4634101    1.8788397   -1.0515839 
H    -6.6898497    3.1798434   -1.1243729 
H    -4.9958793    3.5383030   -1.5360978 
H    -4.9326067    5.4134903    0.2053345 
H    -6.6643389    5.0873148    0.5207307 
H    -5.5000064    5.1206207    1.8735428 
H    -4.3056272    3.5220580    3.1096926 
H    -0.3319954    2.0667775    2.2593445 
H    -0.3905744    1.4291945    4.4286017 
H     0.2617196    3.0748502    4.1513596 
H    -0.3085756    2.6023724    5.7701194 
H    -2.6986386    2.2918219    6.2995141 
H    -2.8941951    1.1151491    4.9620030 
H    -3.9755182    2.5309745    5.0791217 
H    -3.0399393    4.8997175    4.5611995 
H    -1.3156312    5.0966055    4.1402064 
H    -1.7875172    4.6498391    5.8085327 
H     1.8457594    1.8696400   -2.2371394 
H     2.7840928    5.4066214   -5.2977165 
H     4.3213112    4.5186277   -5.3752657 
H     3.7576415    5.1935960   -3.8162605 
H     3.0363861    2.5629160   -6.4660574 
H     1.6767376    1.7960438   -5.5886268 
H     1.4857634    3.4342828   -6.2739957 
H     4.0766859    2.7650084   -2.8278041 
H     4.6218761    2.3100256   -4.4678053 
H     3.3265818    1.3821599   -3.6836382 
H     0.8270213    5.3465838   -4.5843315 
H    -1.7610993    4.0646041   -1.3836439 
H    -2.6769251    4.9034029   -4.7936415 
H    -2.7633275    6.6781770   -5.0159067 
H    -1.3038196    5.7832010   -5.5222684 
H    -3.2743414    7.0525199   -2.5770752 
H    -2.2825508    6.3091335   -1.2940653 
H    -3.3112697    5.2885397   -2.3434528 
H    -1.3409402    8.2269099   -3.5519029 
H     0.1379660    7.3660067   -4.0497992 
H    -0.2433201    7.5444767   -2.3156305 
