206
Energy =
C    -0.5664023   -3.7621648    0.7343571 
C    -1.9272194   -3.4089225    0.5756747 
C    -2.4126515   -2.9597849   -0.6918950 
H    -2.5696241   -3.3255361    1.4612582 
Pd   -0.7891131   -1.6113239    0.0167918 
P    -0.9263475    0.1514510   -1.4933897 
P     0.8830514   -0.6108245    1.2844854 
H    -0.0137191   -4.0051559   -0.1870844 
H    -1.9258564   -3.3715878   -1.5864220 
C     1.5011960   -5.0619970    4.2689154 
C     2.1685150   -4.9613019    3.0394755 
C     1.4762702   -4.5320809    1.9035816 
C     0.1044576   -4.1936656    1.9683970 
C    -0.5502477   -4.2883078    3.2176507 
C     0.1426046   -4.7169596    4.3537870 
H     2.0364820   -5.4100202    5.1579877 
H     3.2296269   -5.2207704    2.9640257 
H     2.0013910   -4.4523131    0.9485692 
H    -1.6100405   -4.0320187    3.3033311 
H    -0.3795615   -4.7819732    5.3133990 
C    -6.4018748   -1.5001958   -1.4049769 
C    -5.6451112   -2.0598563   -2.4444289 
C    -4.3469365   -2.5222051   -2.2005874 
C    -3.7757277   -2.4397737   -0.9115213 
C    -4.5446294   -1.8585710    0.1242346 
C    -5.8434541   -1.4013520   -0.1193617 
H    -7.4185685   -1.1396914   -1.5926697 
H    -6.0652257   -2.1402308   -3.4524933 
H    -3.7618210   -2.9527459   -3.0184515 
H    -4.1169705   -1.7518100    1.1273353 
H    -6.4246341   -0.9600825    0.6966192 
C    -2.7192299   -2.5236545    6.2332624 
C    -2.4534253   -1.2572978    5.3806913 
C    -3.4919134   -1.2248966    4.2392120 
C    -2.6379313    0.0082929    6.2577024 
C    -1.0079370   -1.2753293    4.8456239 
C    -0.7049481   -1.0733416    3.4901635 
C     0.0720944   -1.4799725    5.7288833 
C     1.4129996   -1.5349380    5.3040964 
C     2.5518809   -1.7186101    6.3266091 
C     3.8712955   -2.1392246    5.6414833 
C     2.7687809   -0.3578324    7.0407858 
C     2.1857183   -2.7929282    7.3793939 
C     1.6784776   -1.3389317    3.9342405 
C     0.6314987   -1.0793542    3.0400662 
C     2.5886236   -1.0208210    0.7765882 
C     2.7728936   -1.9709029   -0.2385421 
C     4.0663414   -2.3465156   -0.6523378 
C     4.2381056   -3.3689696   -1.7954226 
C     3.6503394   -2.7667223   -3.0969224 
C     3.4772969   -4.6745840   -1.4528738 
C     5.7192516   -3.7225647   -2.0427728 
C     5.1537466   -1.7421856    0.0029661 
C     5.0012049   -0.7643507    1.0130488 
C     3.6979455   -0.3952909    1.3787966 
C     6.2440239   -0.1757288    1.7089874 
C     5.8786479    1.0157983    2.6202179 
C     6.8869912   -1.2905138    2.5758222 
C     7.2726060    0.3114953    0.6583840 
C     0.8161214    1.2331139    1.3493326 
C     0.4394467    1.8901324    2.5385484 
C     0.3556130    3.2854370    2.5677452 
C     0.6437896    4.0432002    1.4291267 
C     1.1150365    1.9795870    0.1854850 
C     1.0317320    3.3966057    0.2423242 
C     1.5992154    1.3842633   -1.0970506 
C     2.9394249    1.6763928   -1.4676471 
O     3.6689250    2.3629539   -0.5422107 
C     4.8648506    3.0415505   -0.9688763 
C     4.5717203    4.2644451   -1.8539667 
C     4.3216086    5.5787807   -1.0929501 
C     3.1068070    5.6269134   -0.1485888 
C     1.7393527    5.4399536   -0.8284921 
O     1.3400366    4.0579055   -0.9116125 
C     3.4437611    1.2698355   -2.7159052 
C     2.6097388    0.5882569   -3.6066046 
C     1.2907711    0.2803555   -3.2601767 
C     0.7808498    0.6636348   -2.0027726 
C    -1.7697204    1.6850877   -0.9781726 
C    -2.5688893    1.6903796    0.1717565 
C    -3.2914970    2.8472981    0.5342919 
C    -4.1432900    2.8470486    1.8195003 
C    -3.2014130    2.6904799    3.0400781 
C    -5.1367103    1.6599403    1.7759379 
C    -4.9508243    4.1504194    1.9891205 
C    -3.1924413    3.9660565   -0.3097159 
C    -2.3902905    3.9890890   -1.4741831 
C    -1.6624724    2.8338707   -1.7886406 
C    -2.3764379    5.2385437   -2.3755121 
C    -3.7759927    5.3846065   -3.0291046 
C    -2.0692410    6.5006190   -1.5317629 
C    -1.3174107    5.1258685   -3.4929036 
C    -1.7434404   -0.3791336   -3.0480112 
C    -1.3051766   -1.5782022   -3.6402070 
C    -1.8728353   -2.0462320   -4.8372442 
C    -1.3167590   -3.3320936   -5.4821772 
C     0.1604076   -3.0817166   -5.8857444 
C    -1.3779086   -4.4981013   -4.4623850 
C    -2.1095197   -3.7435051   -6.7398670 
C    -2.9261424   -1.2949369   -5.4001631 
C    -3.4090415   -0.1079984   -4.8138113 
C    -2.7962339    0.3419134   -3.6285692 
C    -4.5213745    0.7418626   -5.4600863 
C    -3.8436266    1.9446282   -6.1700566 
C    -5.4996603    1.2764661   -4.3837274 
C    -5.3334336   -0.0629346   -6.4975383 
H    -2.5952074   -3.4391983    5.6286669 
H    -2.0383066   -2.5918655    7.0983255 
H    -3.7523884   -2.5087883    6.6226691 
H    -3.3888753   -2.1024643    3.5756513 
H    -3.4056082   -0.3133440    3.6252977 
H    -4.5116601   -1.2427140    4.6602157 
H    -3.6659935    0.0530410    6.6599787 
H    -1.9377870    0.0101231    7.1110915 
H    -2.4565334    0.9224641    5.6660405 
H    -1.5019885   -0.8969503    2.7594450 
H    -0.1438895   -1.6132433    6.7930043 
H     4.6449919   -2.3276207    6.4054560 
H     4.2577508   -1.3501259    4.9731976 
H     3.7409649   -3.0603626    5.0470327 
H     3.0409358    0.4269626    6.3128677 
H     3.5807113   -0.4377497    7.7859697 
H     1.8518253   -0.0339987    7.5637708 
H     1.3065863   -2.5046639    7.9802061 
H     1.9689032   -3.7613403    6.8982022 
H     3.0273524   -2.9351009    8.0795190 
H     2.7028333   -1.3771514    3.5599662 
H     1.8868988   -2.4015504   -0.7186367 
H     3.7307155   -3.4921795   -3.9264469 
H     4.1924139   -1.8492796   -3.3808368 
H     2.5865788   -2.4978715   -2.9763320 
H     3.6143555   -5.4179374   -2.2579068 
H     3.8485703   -5.1161694   -0.5116751 
H     2.3917656   -4.4998898   -1.3489671 
H     6.1879112   -4.1671123   -1.1471517 
H     6.3069396   -2.8363863   -2.3401522 
H     5.7935739   -4.4594355   -2.8610102 
H     6.1675261   -2.0314239   -0.2837378 
H     3.5257162    0.3847592    2.1237535 
H     6.7954699    1.4434862    3.0610833 
H     5.2241149    0.7094343    3.4553273 
H     5.3638887    1.8123166    2.0545220 
H     6.1735177   -1.6578706    3.3340318 
H     7.1977892   -2.1503224    1.9569801 
H     7.7808296   -0.9047413    3.0983031 
H     8.1555506    0.7404562    1.1639705 
H     7.6276232   -0.5102249    0.0135619 
H     6.8347531    1.0889875    0.0102078 
H     0.2240615    1.3165372    3.4423850 
H     0.0684828    3.7922147    3.4947236 
H     0.5753945    5.1324637    1.4720242 
H     5.5353894    2.3266993   -1.4798175 
H     5.3589927    3.3351241   -0.0283226 
H     5.4390518    4.4163040   -2.5227365 
H     3.7168159    4.0233627   -2.5131142 
H     5.2264157    5.8207281   -0.5026820 
H     4.2213758    6.3931053   -1.8361035 
H     3.2032966    4.8735223    0.6553634 
H     3.1057208    6.6111990    0.3548409 
H     0.9543481    6.0243075   -0.3150410 
H     1.7592528    5.7783923   -1.8773117 
H     4.4723852    1.4970776   -3.0040325 
H     2.9937531    0.2928428   -4.5883412 
H     0.6552390   -0.2384848   -3.9804350 
H    -2.6188219    0.7823955    0.7829131 
H    -3.7890021    2.6216768    3.9732183 
H    -2.5757954    1.7852388    2.9581440 
H    -2.5205591    3.5545885    3.1186051 
H    -5.7557829    1.6454619    2.6907566 
H    -4.6120494    0.6933057    1.7089362 
H    -5.8061853    1.7383668    0.9020750 
H    -5.5503667    4.0966403    2.9143092 
H    -5.6470473    4.3111136    1.1471669 
H    -4.2929295    5.0334482    2.0716022 
H    -3.7613569    4.8645580   -0.0595463 
H    -1.0091013    2.8034646   -2.6636804 
H    -4.5667773    5.5001432   -2.2674607 
H    -3.8028642    6.2720454   -3.6866447 
H    -4.0177687    4.4958744   -3.6383404 
H    -2.8326613    6.6751503   -0.7545963 
H    -2.0438115    7.3946222   -2.1795724 
H    -1.0901182    6.4080260   -1.0319323 
H    -1.2984363    6.0571473   -4.0848413 
H    -1.5433478    4.2978055   -4.1878257 
H    -0.3091160    4.9589838   -3.0762896 
H    -0.5012147   -2.1469610   -3.1579224 
H     0.7836960   -2.8310362   -5.0090065 
H     0.2332663   -2.2477273   -6.6056006 
H     0.5884733   -3.9843501   -6.3573800 
H    -2.4160358   -4.6883220   -4.1375002 
H    -0.9874715   -5.4250636   -4.9182074 
H    -0.7687646   -4.2906159   -3.5644840 
H    -3.1712895   -3.9376025   -6.5067203 
H    -1.6835156   -4.6701704   -7.1613448 
H    -2.0615468   -2.9688593   -7.5249762 
H    -3.3862464   -1.6477069   -6.3238222 
H    -3.1434657    1.2606014   -3.1508430 
H    -4.6039131    2.5926613   -6.6423408 
H    -3.2701005    2.5549983   -5.4498718 
H    -3.1471053    1.5984157   -6.9535535 
H    -5.0037033    1.9580868   -3.6715401 
H    -5.9464386    0.4508193   -3.8048935 
H    -6.3130028    1.8445039   -4.8683345 
H    -4.7143866   -0.3803058   -7.3545440 
H    -5.7855397   -0.9631494   -6.0440340 
H    -6.1495539    0.5623831   -6.8984962 
