197
Energy =
C    -1.8711715    3.0941978    1.4439522 
C    -2.8683339    2.6508077    0.5455890 
C    -3.5399487    1.4029488    0.7372778 
H    -3.0184357    3.1969672   -0.3946500 
Pd   -1.3526335    1.0612628    0.5376007 
P    -1.2498707   -1.1249872   -0.2207805 
P     0.9563997    1.3412468    0.1655512 
H    -1.8955411    2.6768983    2.4630033 
H    -3.6935213    1.0610502    1.7716035 
C     0.5453988    6.6377669    1.1373711 
C     0.3497289    6.0034683    2.3727116 
C    -0.4445605    4.8551236    2.4506065 
C    -1.0612844    4.3149892    1.3002822 
C    -0.8564589    4.9679855    0.0633564 
C    -0.0610465    6.1141273   -0.0163632 
H     1.1678388    7.5359638    1.0697949 
H     0.8221417    6.3974287    3.2779909 
H    -0.5928793    4.3614242    3.4155916 
H    -1.3079153    4.5700753   -0.8485987 
H     0.0924479    6.6010085   -0.9848809 
C    -6.1926698   -0.3224497   -2.1855353 
C    -6.3397555   -0.6252702   -0.8250174 
C    -5.4807741   -0.0526311    0.1212240 
C    -4.4526299    0.8302738   -0.2719009 
C    -4.3116224    1.1189083   -1.6499298 
C    -5.1726249    0.5531466   -2.5947189 
H    -6.8680746   -0.7649110   -2.9246512 
H    -7.1237217   -1.3150218   -0.4975555 
H    -5.6043382   -0.2916240    1.1823137 
H    -3.5048874    1.7773995   -1.9860069 
H    -5.0453786    0.7909466   -3.6564556 
C     1.4370866   -4.0540004    5.1100816 
C     0.9560740   -2.7982388    4.3541688 
C     2.0673901   -1.7224477    4.4342114 
C    -0.3281076   -2.2755575    5.0496677 
C     0.6418977   -3.0907977    2.8738439 
C     0.0758432   -2.0769890    2.0693239 
C     0.8737716   -4.3403816    2.2781160 
C     0.5493028   -4.6263497    0.9300562 
C     0.8320922   -6.0250465    0.3513138 
C     0.3356310   -6.1573663   -1.1038580 
C     2.3622352   -6.2749812    0.3706163 
C     0.1089430   -7.0918860    1.2125459 
C    -0.0395877   -3.6085441    0.1725894 
C    -0.2658983   -2.3386825    0.7394671 
C    -2.7653884   -2.1425807   -0.4189762 
C    -3.4527675   -2.3807649    0.7897553 
C    -4.4907264   -3.3169557    0.8519649 
C    -5.2050524   -3.6686194    2.1710339 
C    -4.9396748   -5.1642961    2.4876074 
C    -6.7293440   -3.4301080    2.0272359 
C    -4.6871649   -2.8235947    3.3543898 
C    -4.8512579   -3.9787845   -0.3450245 
C    -4.1942468   -3.7550588   -1.5649144 
C    -3.1276826   -2.8293227   -1.5815883 
C    -4.5436425   -4.5167790   -2.8585050 
C    -3.3438621   -5.4267961   -3.2329179 
C    -4.8040574   -3.5062703   -4.0042732 
C    -5.7981553   -5.3995271   -2.6946546 
C    -0.4643374   -0.9003823   -1.8631206 
C    -1.2932268   -0.5128078   -2.9407012 
C    -0.7436138   -0.1913579   -4.1852101 
C     0.6419410   -0.2681402   -4.3817405 
C     0.9448275   -0.9219997   -2.0250663 
C     1.4638130   -0.6453293   -3.3157133 
C     1.9226785   -1.1315675   -0.9087626 
C     2.7961547   -2.2486121   -0.8720563 
O     2.8005309   -3.3073634   -1.7441201 
C     2.4888589   -3.2191155   -3.1379546 
C     3.2254163   -2.1105226   -3.8845782 
O     2.8229189   -0.7761493   -3.5023691 
C     3.7165358   -2.4097413    0.1828607 
C     3.8168587   -1.4531867    1.1867167 
C     2.9932137   -0.3200174    1.1572487 
C     2.0524728   -0.1562615    0.1277224 
C     1.2752583    2.1071585   -1.4696046 
C     2.5913477    2.1312957   -1.9686101 
C     2.8704187    2.7173425   -3.2128253 
C     4.2889150    2.7401767   -3.8118491 
C     4.2633787    2.0340986   -5.1925511 
C     4.7459054    4.2115363   -3.9798047 
C     5.3018510    2.0017715   -2.9116453 
C     1.7919537    3.2787568   -3.9264745 
C     0.4599576    3.2395430   -3.4719333 
C     0.2153259    2.6333506   -2.2254987 
C    -0.6606913    3.8734989   -4.3204585 
C    -2.0625228    3.4843933   -3.8061272 
C    -0.5478799    3.4125785   -5.7955799 
C    -0.5126936    5.4156577   -4.2527723 
C     1.7363957    2.4133417    1.4341767 
C     2.6816756    3.3960033    1.1049769 
C     3.3369155    4.1244704    2.1153517 
C     4.4395636    5.1507433    1.7880868 
C     4.4599981    5.5099831    0.2859400 
C     4.2310838    6.4557344    2.5955065 
C     5.8049828    4.5219400    2.1724218 
C     2.9960671    3.8434007    3.4517409 
C     2.0115100    2.9015077    3.8145737 
C     1.3868020    2.1839448    2.7797356 
C     1.6658373    2.6849021    5.3014734 
C     0.4137538    1.8001943    5.4809509 
C     1.3926154    4.0479486    5.9874139 
C     2.8711265    1.9944279    5.9912812 
H     1.6304818   -3.7997778    6.1666263 
H     0.6788540   -4.8564900    5.0906575 
H     2.3762655   -4.4516344    4.6873320 
H     2.2631016   -1.4501324    5.4867272 
H     3.0052102   -2.0993587    3.9927545 
H     1.7883570   -0.8057641    3.8876990 
H    -0.1266763   -2.0615521    6.1144084 
H    -1.1359258   -3.0265822    4.9945096 
H    -0.6985259   -1.3448440    4.5862454 
H    -0.1171124   -1.0793022    2.4807010 
H     1.3163719   -5.1370853    2.8807111 
H     0.8450316   -5.4383876   -1.7685818 
H     0.5521580   -7.1724189   -1.4791674 
H    -0.7540439   -5.9957459   -1.1814028 
H     2.5893189   -7.2838228   -0.0184473 
H     2.7720082   -6.2076286    1.3934472 
H     2.8778652   -5.5313929   -0.2607534 
H    -0.9810743   -6.9132092    1.2221189 
H     0.2914291   -8.1007523    0.8015024 
H     0.4647450   -7.0874790    2.2571597 
H    -0.3403600   -3.7877924   -0.8626413 
H    -3.1331278   -1.8447781    1.6885797 
H    -5.4257062   -5.4469577    3.4385364 
H    -3.8559025   -5.3560195    2.5796863 
H    -5.3362872   -5.8235126    1.6963297 
H    -6.9453654   -2.3654483    1.8305126 
H    -7.2500939   -3.7169718    2.9578749 
H    -7.1620610   -4.0239206    1.2040550 
H    -5.2271902   -3.1033413    4.2751776 
H    -4.8507703   -1.7431276    3.1890482 
H    -3.6098990   -2.9877965    3.5351571 
H    -5.6651127   -4.7069382   -0.3089480 
H    -2.5620707   -2.6776294   -2.5043572 
H    -3.5606813   -5.9861445   -4.1605168 
H    -2.4242896   -4.8381940   -3.3988854 
H    -3.1401036   -6.1554511   -2.4287655 
H    -3.9221238   -2.8731063   -4.2049352 
H    -5.0496606   -4.0439979   -4.9371510 
H    -5.6475509   -2.8408926   -3.7536872 
H    -5.6519105   -6.1845010   -1.9321114 
H    -6.0244123   -5.9044725   -3.6494941 
H    -6.6819214   -4.8000761   -2.4130190 
H    -2.3752448   -0.4464596   -2.7932624 
H    -1.3994993    0.1108230   -5.0076923 
H     1.0999742   -0.0364771   -5.3473677 
H     1.3963228   -3.1486921   -3.2901023 
H     2.8208494   -4.1859036   -3.5508900 
H     4.3077684   -2.1577124   -3.6865294 
H     3.0519472   -2.2555044   -4.9706451 
H     4.3500613   -3.3007034    0.1715574 
H     4.5497224   -1.5765964    1.9901261 
H     3.0930723    0.4402628    1.9347998 
H     3.3866106    1.6579656   -1.3886571 
H     3.9139954    0.9936581   -5.0799690 
H     5.2765384    2.0226273   -5.6324480 
H     3.5961870    2.5506311   -5.9045184 
H     5.7609717    4.2494858   -4.4137314 
H     4.7666601    4.7299493   -3.0049367 
H     4.0718481    4.7736218   -4.6495270 
H     5.0112325    0.9467456   -2.7660381 
H     6.2995845    2.0205380   -3.3829370 
H     5.3948158    2.4805157   -1.9202085 
H     1.9994388    3.7499657   -4.8924974 
H    -0.8010467    2.5362999   -1.8334720 
H    -2.8379175    3.9186387   -4.4599322 
H    -2.1942225    2.3888022   -3.7975084 
H    -2.2486647    3.8645296   -2.7861418 
H    -0.6047192    2.3130202   -5.8701729 
H    -1.3715997    3.8435713   -6.3912972 
H     0.3987590    3.7360120   -6.2597591 
H    -0.6120447    5.7727199   -3.2128927 
H    -1.2918684    5.9069863   -4.8626312 
H     0.4731966    5.7383400   -4.6296182 
H     2.9082358    3.5874349    0.0554065 
H     3.4841331    5.9049626   -0.0479168 
H     5.2248926    6.2831658    0.0990839 
H     4.7130207    4.6388655   -0.3434602 
H     3.2596598    6.9177308    2.3526276 
H     5.0282153    7.1799539    2.3525312 
H     4.2657899    6.2817161    3.6844590 
H     5.9803973    3.5910312    1.6047743 
H     6.6284477    5.2244595    1.9508987 
H     5.8435067    4.2772003    3.2484496 
H     3.5083490    4.3932354    4.2472367 
H     0.6160283    1.4395198    3.0040621 
H     0.5654947    0.7823907    5.0858496 
H    -0.4687330    2.2393280    4.9806148 
H     0.1762910    1.7036047    6.5541795 
H     0.5484947    4.5735811    5.5071281 
H     1.1366169    3.8914920    7.0500441 
H     2.2713189    4.7136459    5.9529142 
H     3.7810699    2.6153183    5.9208902 
H     2.6570065    1.8230486    7.0615256 
H     3.0863734    1.0201441    5.5198046 
