206
Energy =
C     0.2752896    1.6011177   -3.5215522 
C    -0.9211981    0.8506954   -3.7442161 
C    -2.0983296    1.1461859   -3.0180869 
H    -0.8837407   -0.0575079   -4.3585484 
Pd   -0.3685943    0.6274319   -1.6254120 
P    -1.5135402   -0.6517687   -0.0590535 
P     1.4507251    1.0177444   -0.2236100 
H     0.1568937    2.6534091   -3.2294705 
H    -2.1542075    2.1464283   -2.5600380 
C     4.0812997    0.7165678   -5.3354369 
C     3.1162641   -0.2966867   -5.2106217 
C     1.8829001   -0.0276057   -4.6093095 
C     1.5773776    1.2680520   -4.1295424 
C     2.5625234    2.2736192   -4.2515677 
C     3.7979857    2.0014750   -4.8503274 
H     5.0454313    0.5038724   -5.8087739 
H     3.3291671   -1.3041413   -5.5822595 
H     1.1517177   -0.8363615   -4.5040335 
H     2.3528145    3.2785741   -3.8728915 
H     4.5382218    2.8019244   -4.9447574 
C    -5.9240648   -0.8028226   -3.1633533 
C    -5.7099601    0.3032657   -2.3280539 
C    -4.4554129    0.9185768   -2.2940637 
C    -3.3873762    0.4447927   -3.0911269 
C    -3.6160280   -0.6787825   -3.9180319 
C    -4.8706730   -1.2944676   -3.9512419 
H    -6.9085329   -1.2796930   -3.2026953 
H    -6.5224432    0.6899339   -1.7041065 
H    -4.2923135    1.7784570   -1.6395836 
H    -2.8115237   -1.0719970   -4.5460421 
H    -5.0293772   -2.1647617   -4.5956164 
C    -4.5802530   -1.7344875    4.2794949 
C    -5.0600041   -0.2954055    3.9925876 
C    -6.5390846   -0.3443722    3.5261583 
C    -4.9663404    0.5210705    5.3055052 
C    -4.2264491    0.3738684    2.8821108 
C    -3.3154771   -0.3479416    2.0960336 
C    -4.4028981    1.7476842    2.5978409 
C    -3.7019505    2.4186985    1.5801350 
C    -3.8506720    3.9325381    1.3188531 
C    -2.5056984    4.6275122    1.6494539 
C    -4.1962406    4.1833935   -0.1703814 
C    -4.9587784    4.5665517    2.1853027 
C    -2.8158160    1.6549194    0.7944965 
C    -2.6382835    0.2842813    1.0345857 
C    -2.4625085   -1.9418547   -0.9554614 
C    -1.7921023   -2.5638782   -2.0294017 
C    -2.3644136   -3.6580116   -2.6970978 
C    -1.6570303   -4.3782418   -3.8621145 
C    -2.6241346   -4.5205383   -5.0643908 
C    -1.2196518   -5.7848316   -3.3770526 
C    -0.4086996   -3.6092467   -4.3445309 
C    -3.6242500   -4.1057122   -2.2492747 
C    -4.3378002   -3.4796406   -1.2100756 
C    -3.7379830   -2.3764301   -0.5710723 
C    -5.6920174   -4.0449945   -0.7382193 
C    -6.4768454   -3.0158685    0.1053917 
C    -6.5713524   -4.4600202   -1.9428533 
C    -5.4021463   -5.2940643    0.1361731 
C    -0.4421305   -1.6509189    1.0650460 
C    -0.3832210   -3.0533626    0.9326502 
C     0.4542334   -3.7981218    1.7687131 
C     1.2351040   -3.1693294    2.7428255 
C     0.3397676   -0.9931310    2.0434738 
C     1.1732773   -1.7723566    2.8898629 
C     0.2859982    0.4752543    2.3153618 
C    -0.2686472    0.8700298    3.5627926 
O    -0.8074451   -0.1349908    4.3108507 
C    -1.0314453    0.0909613    5.7147322 
C     0.2761658    0.1683602    6.5195480 
C     0.8230315   -1.1854508    7.0058323 
C     1.2151799   -2.2129250    5.9287251 
C     2.3570729   -1.7791180    4.9930761 
O     1.8904331   -1.0795298    3.8227175 
C    -0.2451035    2.2172297    3.9650731 
C     0.3421739    3.1737020    3.1324911 
C     0.8792303    2.8121369    1.8936390 
C     0.8463603    1.4669301    1.4717314 
C     2.3887016    2.4973645   -0.7712910 
C     1.6315047    3.6279850   -1.1372545 
C     2.2570908    4.8138542   -1.5514386 
C     1.4582937    6.0681631   -1.9560116 
C    -0.0655587    5.8462076   -1.8429045 
C     1.7919301    6.4325857   -3.4255528 
C     1.8517507    7.2431196   -1.0244420 
C     3.6676521    4.8235746   -1.5923861 
C     4.4537800    3.7105067   -1.2378148 
C     3.7892920    2.5354363   -0.8338985 
C     5.9923962    3.8102988   -1.2726014 
C     6.4425639    4.9672189   -0.3428144 
C     6.6655924    2.5089462   -0.7872883 
C     6.4627807    4.0962061   -2.7208985 
C     2.6587487   -0.3291459    0.0129780 
C     2.6352055   -1.4314785   -0.8516663 
C     3.5874058   -2.4646331   -0.7204272 
C     3.5232786   -3.6918917   -1.6514983 
C     3.5097568   -3.2209059   -3.1259184 
C     4.7235019   -4.6409831   -1.4556310 
C     2.2217598   -4.4756995   -1.3456776 
C     4.5577533   -2.3280117    0.2857737 
C     4.6028636   -1.2297187    1.1750031 
C     3.6255280   -0.2345363    1.0354668 
C     5.7221963   -1.1464527    2.2306219 
C     5.7512936   -2.4478472    3.0705300 
C     5.5201373    0.0494696    3.1847768 
C     7.0805927   -0.9794973    1.5004089 
H    -4.7171073   -2.3955501    3.4054608 
H    -3.5128777   -1.7545364    4.5618561 
H    -5.1646461   -2.1639174    5.1113026 
H    -6.6357440   -0.9192255    2.5887524 
H    -6.9362866    0.6696988    3.3455450 
H    -7.1692845   -0.8259602    4.2953044 
H    -5.5603669    0.0329331    6.0980667 
H    -3.9216025    0.5913131    5.6515411 
H    -5.3554584    1.5464136    5.1847812 
H    -3.1130551   -1.4017225    2.2997940 
H    -5.1128575    2.3116737    3.2072515 
H    -2.5720630    5.7107843    1.4417356 
H    -1.6772909    4.2104377    1.0513533 
H    -2.2475324    4.4901681    2.7127888 
H    -3.3979697    3.8229632   -0.8430151 
H    -4.3163137    5.2653273   -0.3552923 
H    -5.1390695    3.6818447   -0.4501676 
H    -5.9432502    4.1062045    1.9892820 
H    -4.7391455    4.4737226    3.2632896 
H    -5.0393507    5.6430322    1.9557691 
H    -2.2343533    2.1248150   -0.0069896 
H    -0.8091958   -2.1810791   -2.3250122 
H    -2.1181926   -5.0374406   -5.8986211 
H    -2.9532439   -3.5301279   -5.4250663 
H    -3.5230417   -5.1057223   -4.8073176 
H    -0.7075848   -6.3317863   -4.1890135 
H    -0.5263116   -5.7042003   -2.5218214 
H    -2.0884126   -6.3855843   -3.0562652 
H     0.3583167   -3.5253288   -3.5574045 
H    -0.6707090   -2.5912372   -4.6854004 
H     0.0508681   -4.1386346   -5.1965137 
H    -4.0729042   -4.9737718   -2.7409788 
H    -4.2581108   -1.8579217    0.2358694 
H    -7.4664106   -3.4265700    0.3695392 
H    -6.6301367   -2.0733348   -0.4485164 
H    -5.9590222   -2.7787372    1.0508788 
H    -6.7470746   -3.6056995   -2.6178707 
H    -6.1145787   -5.2734915   -2.5318707 
H    -7.5496811   -4.8260093   -1.5856448 
H    -6.3459552   -5.7372197    0.5018724 
H    -4.8600876   -6.0643762   -0.4401116 
H    -4.7831005   -5.0245265    1.0102897 
H    -0.9977979   -3.5647088    0.1889488 
H     0.4931230   -4.8874556    1.6663388 
H     1.8796577   -3.7680308    3.3901617 
H    -1.6478628   -0.7661354    6.0316567 
H    -1.6437550    1.0009317    5.8517297 
H     1.0308854    0.7016452    5.9117631 
H     0.0940159    0.8033351    7.4061324 
H     1.7056385   -0.9917951    7.6453681 
H     0.0685563   -1.6517215    7.6684736 
H     1.5285042   -3.1408031    6.4415376 
H     0.3409924   -2.4874146    5.3092946 
H     3.0328527   -1.0602651    5.4847037 
H     2.9731726   -2.6445818    4.6887986 
H    -0.6645414    2.5213742    4.9264188 
H     0.3810420    4.2193219    3.4545633 
H     1.3413326    3.5766609    1.2659321 
H     0.5401167    3.5678404   -1.0867809 
H    -0.5979044    6.7652021   -2.1423466 
H    -0.4116281    5.0333361   -2.5073115 
H    -0.3715921    5.6049126   -0.8094582 
H     1.2375363    7.3376012   -3.7313510 
H     1.5109227    5.6112995   -4.1087002 
H     2.8681458    6.6347700   -3.5615748 
H     1.2908684    8.1541202   -1.2993767 
H     2.9280926    7.4759219   -1.0946263 
H     1.6240206    7.0007066    0.0286395 
H     4.1738936    5.7401143   -1.9132016 
H     4.3588521    1.6444351   -0.5651119 
H     6.1046191    4.7914372    0.6936323 
H     7.5443609    5.0453956   -0.3394114 
H     6.0385777    5.9398627   -0.6725997 
H     6.3866285    2.2730653    0.2549193 
H     7.7627376    2.6229413   -0.8217573 
H     6.3986877    1.6456380   -1.4218943 
H     7.5605081    4.2151805   -2.7492829 
H     6.0121533    5.0204687   -3.1221799 
H     6.1896798    3.2619607   -3.3890843 
H     1.8596733   -1.4777835   -1.6245556 
H     4.4182014   -2.6409715   -3.3632953 
H     2.6402265   -2.5794209   -3.3401607 
H     3.4627063   -4.0910185   -3.8049650 
H     4.7577408   -5.0556806   -0.4328010 
H     4.6402111   -5.4913461   -2.1543523 
H     5.6824421   -4.1321891   -1.6582487 
H     2.2355094   -4.8640204   -0.3134487 
H     2.1138714   -5.3286588   -2.0395948 
H     1.3291325   -3.8347175   -1.4439816 
H     5.3152170   -3.1078296    0.3937381 
H     3.5946223    0.6204061    1.7148636 
H     6.5384476   -2.3857630    3.8426561 
H     4.7836059   -2.6091789    3.5743332 
H     5.9630721   -3.3349085    2.4496646 
H     4.5436244   -0.0046369    3.6965051 
H     5.5744868    1.0131578    2.6479146 
H     6.3132936    0.0532660    3.9522072 
H     7.2875858   -1.8341066    0.8330173 
H     7.0868572   -0.0612149    0.8883461 
H     7.9043319   -0.9135814    2.2337067 
