206
Energy =
C     0.3142226    1.5182421   -3.5587214 
C    -0.8938760    0.7781558   -3.7625634 
C    -2.0603592    1.1142486   -3.0373025 
H    -0.8729323   -0.1454219   -4.3544614 
Pd   -0.3370383    0.5934333   -1.6448125 
P    -1.4864889   -0.6763720   -0.0632490 
P     1.4600997    1.0308098   -0.2326622 
H     0.2082126    2.5807978   -3.3016329 
H    -2.0918226    2.1276065   -2.6063552 
C     4.1176497    0.5272437   -5.3234084 
C     3.8426618    1.8344049   -4.8961579 
C     2.6070624    2.1412596   -4.3148693 
C     1.6138511    1.1497337   -4.1515484 
C     1.9111006   -0.1679083   -4.5730000 
C     3.1443126   -0.4721834   -5.1578428 
H     5.0818570    0.2865170   -5.7829749 
H     4.5895296    2.6244467   -5.0217213 
H     2.4037625    3.1630778   -3.9816227 
H     1.1742014   -0.9658241   -4.4327717 
H     3.3510622   -1.4967054   -5.4836390 
C    -5.9100592   -0.7875535   -3.0329804 
C    -4.8759877   -1.3296797   -3.8140855 
C    -3.6147522   -0.7275682   -3.8317512 
C    -3.3610328    0.4333161   -3.0657665 
C    -4.4115060    0.9624306   -2.2795440 
C    -5.6719886    0.3583812   -2.2598128 
H    -6.8996546   -1.2554868   -3.0299014 
H    -5.0537066   -2.2295083   -4.4112035 
H    -2.8236022   -1.1615588   -4.4495077 
H    -4.2296090    1.8558394   -1.6742402 
H    -6.4701769    0.7854458   -1.6437423 
C    -4.7120937   -1.6584408    4.2112262 
C    -5.1917691   -0.2363873    3.8481124 
C    -6.6334624   -0.3217309    3.2801264 
C    -5.2043485    0.6169970    5.1401882 
C    -4.2958009    0.4114787    2.7736127 
C    -3.3682778   -0.3371813    2.0263368 
C    -4.4290977    1.7818653    2.4705790 
C    -3.6715463    2.4301633    1.4740729 
C    -3.8471036    3.9392922    1.2178767 
C    -5.2733664    4.1903387    0.6642942 
C    -3.6600183    4.7185975    2.5442608 
C    -2.8158816    4.4699743    0.1981986 
C    -2.7827339    1.6435448    0.7254169 
C    -2.6464135    0.2690204    0.9834192 
C    -2.3958795   -2.0062030   -0.9432474 
C    -1.7083834   -2.6266286   -2.0070470 
C    -2.2652083   -3.7274861   -2.6782690 
C    -1.5503716   -4.4361549   -3.8456610 
C    -1.1088258   -5.8456082   -3.3736114 
C    -0.3048909   -3.6575138   -4.3188624 
C    -2.5161260   -4.5695786   -5.0505613 
C    -3.5218158   -4.1893865   -2.2372445 
C    -4.2496818   -3.5701213   -1.2038784 
C    -3.6697078   -2.4555844   -0.5672732 
C    -5.6017342   -4.1535820   -0.7480009 
C    -6.4939937   -4.4959001   -1.9665532 
C    -5.3122639   -5.4510887    0.0527206 
C    -6.3728049   -3.1700314    0.1589095 
C    -0.4248436   -1.6076817    1.1233880 
C    -0.3311792   -3.0119636    1.0568010 
C     0.4846002   -3.6970477    1.9632968 
C     1.2053181   -3.0058562    2.9422420 
C     0.3043966   -0.8864836    2.0977771 
C     1.1116014   -1.6046734    3.0182331 
C     0.2043792    0.5930955    2.2841728 
C    -0.4380545    1.0413494    3.4701302 
O    -0.9728164    0.0616343    4.2529673 
C    -1.2747383    0.3617626    5.6277585 
C    -0.0092750    0.5263985    6.4849028 
C     0.5485792   -0.7813814    7.0744892 
C     1.0057490   -1.8649833    6.0806797 
C     2.1871697   -1.4728725    5.1766395 
O     1.7728645   -0.8497948    3.9446264 
C    -0.5108104    2.4121249    3.7737170 
C     0.0695100    3.3411635    2.9049346 
C     0.7054920    2.9243938    1.7317731 
C     0.7695162    1.5531134    1.4074983 
C     2.4452845    2.4688961   -0.8112681 
C     1.7364346    3.6030606   -1.2564278 
C     2.4138804    4.7451004   -1.7124912 
C     1.6727336    6.0076126   -2.1948783 
C     0.1398266    5.8379290   -2.1342557 
C     2.0731103    6.3113249   -3.6614196 
C     2.0695891    7.2016778   -1.2888947 
C     3.8240909    4.7053641   -1.7195618 
C     4.5624520    3.5859908   -1.2913830 
C     3.8480598    2.4584404   -0.8415496 
C     6.1039327    3.6237292   -1.3114813 
C     6.5947696    3.7557935   -2.7754625 
C     6.5950033    4.8411553   -0.4862614 
C     6.7197596    2.3466069   -0.7013250 
C     2.6435814   -0.3169548    0.0998061 
C     2.6420534   -1.4433441   -0.7333475 
C     3.5823548   -2.4777687   -0.5415822 
C     3.5454384   -3.7258844   -1.4458565 
C     3.6019643   -3.2871991   -2.9294271 
C     4.7251906   -4.6819733   -1.1749859 
C     2.2230055   -4.4901579   -1.1834714 
C     4.5173161   -2.3193531    0.4941551 
C     4.5395237   -1.1962923    1.3530728 
C     3.5763608   -0.1980646    1.1508843 
C     5.6182933   -1.0957308    2.4485033 
C     5.5781013   -2.3635854    3.3380881 
C     5.4085760    0.1421939    3.3455193 
C     7.0095801   -0.9909815    1.7709428 
H    -4.7892731   -2.3508213    3.3546969 
H    -3.6627054   -1.6537103    4.5549779 
H    -5.3386885   -2.0685555    5.0217709 
H    -6.6553722   -0.9230148    2.3547532 
H    -7.0280045    0.6817339    3.0428858 
H    -7.3108080   -0.7912316    4.0160106 
H    -5.8446781    0.1388933    5.9021199 
H    -4.1886352    0.7166281    5.5581002 
H    -5.6023948    1.6308824    4.9650870 
H    -3.1909080   -1.3907274    2.2531352 
H    -5.1506686    2.3736746    3.0428585 
H    -5.4302024    5.2675051    0.4757074 
H    -6.0470113    3.8535741    1.3759660 
H    -5.4277012    3.6486055   -0.2859338 
H    -4.4070351    4.4255157    3.3016087 
H    -3.7714056    5.8032971    2.3683459 
H    -2.6565576    4.5338539    2.9640029 
H    -1.7820892    4.2836111    0.5384924 
H    -2.9415866    4.0060865   -0.7968360 
H    -2.9430269    5.5585799    0.0691839 
H    -2.1616864    2.0857639   -0.0584362 
H    -0.7282425   -2.2329610   -2.2974670 
H    -0.5957080   -6.3833869   -4.1909719 
H    -1.9754644   -6.4521772   -3.0581067 
H    -0.4153290   -5.7709089   -2.5180752 
H     0.1616467   -4.1798348   -5.1714187 
H    -0.5729298   -2.6402457   -4.6568233 
H     0.4583211   -3.5715899   -3.5279863 
H    -2.8573866   -3.5770121   -5.3944761 
H    -3.4081643   -5.1690904   -4.8027227 
H    -2.0049325   -5.0669179   -5.8934586 
H    -3.9574387   -5.0636903   -2.7302485 
H    -4.2059923   -1.9359932    0.2277806 
H    -7.4644240   -4.8942855   -1.6223833 
H    -6.0368653   -5.2625871   -2.6150204 
H    -6.6865774   -3.5999783   -2.5798624 
H    -4.7842805   -6.1940832   -0.5705085 
H    -4.6811566   -5.2351560    0.9329398 
H    -6.2558026   -5.9057910    0.4045030 
H    -7.3580689   -3.5942630    0.4175093 
H    -5.8387549   -2.9820795    1.1064262 
H    -6.5364569   -2.2001612   -0.3428864 
H    -0.9030696   -3.5688776    0.3110616 
H     0.5523581   -4.7887608    1.9149526 
H     1.8294585   -3.5597817    3.6470916 
H    -1.8798486   -0.4954061    5.9656747 
H    -1.9202040    1.2572488    5.6811265 
H     0.7576924    1.0454998    5.8798825 
H    -0.2488035    1.2061412    7.3233594 
H     1.3999190   -0.5279426    7.7351317 
H    -0.2220881   -1.2240905    7.7346907 
H     1.3058591   -2.7549389    6.6638152 
H     0.1664984   -2.1905356    5.4380774 
H     2.8310488   -0.7177442    5.6566587 
H     2.8255814   -2.3473444    4.9557356 
H    -1.0058015    2.7579691    4.6835827 
H     0.0315005    4.4075728    3.1506553 
H     1.1700113    3.6676644    1.0806834 
H     0.6427726    3.5805914   -1.2403493 
H    -0.3509289    6.7592164   -2.4919526 
H    -0.2064232    5.0083298   -2.7774501 
H    -0.2133567    5.6499003   -1.1053055 
H     1.5617555    7.2238021   -4.0158061 
H     1.7885295    5.4787136   -4.3290676 
H     3.1597031    6.4735533   -3.7640215 
H     1.5499414    8.1199716   -1.6158648 
H     3.1551253    7.3967857   -1.3251666 
H     1.7948191    7.0036509   -0.2377353 
H     4.3686853    5.5859927   -2.0759445 
H     4.3811704    1.5646864   -0.5140275 
H     6.1841574    4.6572954   -3.2629022 
H     7.6967048    3.8269853   -2.8044495 
H     6.2897205    2.8758598   -3.3669326 
H     6.2379500    5.7961001   -0.9086139 
H     7.6989982    4.8722521   -0.4762150 
H     6.2409415    4.7761906    0.5576001 
H     7.8207754    2.4185648   -0.7219906 
H     6.4340331    1.4406827   -1.2642285 
H     6.4122667    2.2124357    0.3509606 
H     1.8933654   -1.5065425   -1.5312171 
H     4.5257362   -2.7210321   -3.1396333 
H     2.7493181   -2.6420527   -3.1946904 
H     3.5755054   -4.1713882   -3.5912818 
H     4.7101490   -5.0712381   -0.1417462 
H     4.6630376   -5.5484600   -1.8559272 
H     5.6976695   -4.1881985   -1.3478129 
H     2.1826470   -4.8524343   -0.1425597 
H     2.1411817   -5.3596755   -1.8602127 
H     1.3422379   -3.8449272   -1.3424723 
H     5.2645977   -3.1007734    0.6508733 
H     3.5302978    0.6774146    1.8027632 
H     6.3318185   -2.2903581    4.1420051 
H     4.5850558   -2.4821694    3.8031117 
H     5.7934085   -3.2788391    2.7608244 
H     4.4130526    0.1302651    3.8218323 
H     5.5045748    1.0812394    2.7720670 
H     6.1728627    0.1607359    4.1415610 
H     7.2233231   -1.8762761    1.1472160 
H     7.0649077   -0.0983575    1.1245284 
H     7.8031295   -0.9152853    2.5358558 
