200
Energy =
C     3.4339904    0.3324411    1.4001170 
C     3.3142959    1.6699672    0.8960175 
C     2.3438637    2.5432176    1.4379934 
H     3.8445637    1.9585234   -0.0199126 
Pd    1.3929361    0.6439609    0.6136296 
P    -0.4335320    1.4971439   -0.5449298 
P     0.4735564   -1.4837393    0.8381176 
H     3.2344132    0.1748259    2.4686216 
H     1.9544060    2.2822990    2.4353247 
C     5.6649123   -2.8373773   -0.4819477 
C     5.3606790   -1.6725777   -1.2065207 
C     4.6445863   -0.6334857   -0.6047981 
C     4.2263225   -0.7258472    0.7450046 
C     4.5475601   -1.8998518    1.4644154 
C     5.2545000   -2.9433832    0.8549936 
H     6.2200619   -3.6527525   -0.9569195 
H     5.6795392   -1.5775525   -2.2498679 
H     4.3953424    0.2534377   -1.1964782 
H     4.2287788   -1.9950801    2.5080424 
H     5.4884671   -3.8442386    1.4309281 
C     1.2408752    6.5172647    0.2445053 
C     0.6022795    5.8841106    1.3213432 
C     0.9846104    4.5929274    1.6951889 
C     2.0066921    3.9033680    1.0005699 
C     2.6361453    4.5535176   -0.0856410 
C     2.2552203    5.8460899   -0.4576430 
H     0.9518713    7.5325918   -0.0448711 
H    -0.1920620    6.3979891    1.8726550 
H     0.4836336    4.1015697    2.5351436 
H     3.4321159    4.0498934   -0.6410616 
H     2.7504163    6.3337552   -1.3029592 
C     1.3230841   -2.9956795   -5.3795710 
C     2.1496735   -2.7756604   -4.0886183 
C     2.6334797   -1.3098600   -4.0751633 
C     3.3832327   -3.7156074   -4.0930321 
C     1.3005478   -3.1000337   -2.8445847 
C     1.2809946   -2.2647650   -1.7129436 
C     0.5295941   -4.2772567   -2.7980129 
C    -0.2765287   -4.6347045   -1.6975350 
C    -1.1152563   -5.9255541   -1.7456061 
C    -2.0500833   -5.8742831   -2.9812344 
C    -0.1650425   -7.1448248   -1.8574812 
C    -1.9881026   -6.0890488   -0.4836257 
C    -0.2912654   -3.7688353   -0.5933167 
C     0.4927973   -2.6003997   -0.6012194 
C     1.2578609   -2.3885506    2.2269233 
C     1.4957245   -1.6739412    3.4187423 
C     2.1483904   -2.2803479    4.5033437 
C     2.4668507   -1.5199470    5.8049926 
C     4.0067098   -1.4588476    5.9797238 
C     1.8316995   -2.2629030    7.0075961 
C     1.9205326   -0.0766836    5.7813459 
C     2.5498765   -3.6258345    4.3533959 
C     2.3382351   -4.3629614    3.1734273 
C     1.6886280   -3.7176252    2.1025804 
C     2.7700661   -5.8402992    3.0856339 
C     4.2194362   -6.0148972    3.6030136 
C     1.8058750   -6.6749402    3.9695525 
C     2.7051818   -6.3717382    1.6367266 
C    -1.3114927   -1.3202368    1.3016954 
C    -1.7239652   -1.4979515    2.6374365 
C    -3.0636865   -1.3052549    2.9967414 
C    -4.0140854   -0.9483410    2.0342597 
C    -2.2610183   -0.9573398    0.3128326 
C    -3.6146918   -0.7967273    0.6979154 
C    -1.9519622   -0.8060909   -1.1429842 
C    -2.5230201   -1.7509853   -2.0285724 
O    -3.2443251   -2.7756001   -1.4722469 
C    -4.6225356   -2.9614285   -1.8679528 
C    -5.5462072   -2.6531852   -0.6857773 
C    -5.7383991   -1.1611082   -0.3989653 
O    -4.4900356   -0.4486231   -0.3002035 
C    -2.3110191   -1.6705731   -3.4134466 
C    -1.5558877   -0.6141248   -3.9337518 
C    -1.0042982    0.3503734   -3.0809175 
C    -1.1947076    0.2611142   -1.6875496 
C    -1.8157428    2.1131189    0.4717845 
C    -3.0479631    2.4649550   -0.1064596 
C    -4.0952838    2.9412918    0.6994335 
C    -5.4621325    3.3452918    0.1154324 
C    -6.5811532    2.5493745    0.8340727 
C    -5.5499319    3.0457999   -1.3960731 
C    -5.6756005    4.8644405    0.3380714 
C    -3.8648056    3.0375009    2.0875027 
C    -2.6555199    2.6517561    2.6988758 
C    -1.6281784    2.1873953    1.8614635 
C    -2.4777124    2.7645022    4.2252003 
C    -2.3874478    4.2664348    4.6002151 
C    -1.1958098    2.0487150    4.7042617 
C    -3.6853251    2.1204376    4.9511788 
C     0.1177369    2.8428554   -1.6605552 
C    -0.6297352    4.0104110   -1.8698796 
C    -0.2146793    4.9623327   -2.8202615 
C    -1.0669787    6.2071784   -3.1365542 
C    -1.8357470    5.9317287   -4.4562206 
C    -0.1731124    7.4580960   -3.3193981 
C    -2.0878821    6.4999301   -2.0139749 
C     0.9751884    4.7075598   -3.5287636 
C     1.7786802    3.5713001   -3.3020438 
C     1.3282825    2.6376191   -2.3537033 
C     3.0797684    3.3655833   -4.1033536 
C     2.6985619    2.9219911   -5.5398545 
C     3.8925506    4.6827703   -4.1637118 
C     3.9801720    2.2824637   -3.4711218 
H     1.9253893   -2.7229549   -6.2640417 
H     0.4127058   -2.3716601   -5.3722392 
H     1.0161652   -4.0479750   -5.5034890 
H     3.1961502   -1.0904428   -4.9991625 
H     1.7825448   -0.6079808   -4.0169367 
H     3.3052224   -1.1121968   -3.2237266 
H     4.0248613   -3.5085370   -4.9687836 
H     3.0741312   -4.7746392   -4.1373197 
H     3.9831848   -3.5741467   -3.1772683 
H     1.8619849   -1.3390547   -1.6822419 
H     0.5462485   -4.9439383   -3.6659803 
H    -2.6865324   -6.7763071   -3.0184927 
H    -2.7000445   -4.9849488   -2.9265041 
H    -1.4813990   -5.8261831   -3.9258133 
H     0.4597282   -7.0921345   -2.7660173 
H     0.5092384   -7.1968286   -0.9844919 
H    -0.7476327   -8.0824068   -1.9011514 
H    -2.5897679   -7.0109624   -0.5639412 
H    -1.3731048   -6.1731550    0.4302985 
H    -2.6781781   -5.2359997   -0.3629585 
H    -0.9268605   -3.9758612    0.2706069 
H     1.1764026   -0.6288391    3.4797232 
H     4.4771853   -0.9363904    5.1274636 
H     4.4494194   -2.4674998    6.0454375 
H     4.2667832   -0.9140008    6.9046916 
H     0.7344160   -2.3203123    6.8976746 
H     2.2185702   -3.2917926    7.1037917 
H     2.0580252   -1.7300127    7.9480902 
H     2.3668235    0.5195323    4.9645242 
H     2.1669693    0.4296920    6.7302169 
H     0.8229678   -0.0556988    5.6658348 
H     3.0572203   -4.1137491    5.1915860 
H     1.5257752   -4.2436312    1.1608979 
H     4.9274453   -5.4070327    3.0134017 
H     4.5242503   -7.0728214    3.5205845 
H     4.3215931   -5.7246252    4.6624524 
H     0.7644984   -6.5730030    3.6165160 
H     2.0810005   -7.7443688    3.9353325 
H     1.8423041   -6.3449787    5.0226013 
H     1.6745433   -6.3662273    1.2404912 
H     3.0631457   -7.4151699    1.6082158 
H     3.3385772   -5.7744669    0.9568389 
H    -1.0017507   -1.8046040    3.3981313 
H    -3.3697417   -1.4421965    4.0390065 
H    -5.0584817   -0.7881055    2.3158216 
H    -4.8538492   -2.3247064   -2.7420393 
H    -4.7297314   -4.0182674   -2.1673298 
H    -6.5431556   -3.0903464   -0.8833172 
H    -5.1428587   -3.1649227    0.2069141 
H    -6.2585271   -0.6619862   -1.2328499 
H    -6.3505451   -1.0160219    0.5118063 
H    -2.7341575   -2.4376174   -4.0688285 
H    -1.3953674   -0.5383876   -5.0140878 
H    -0.4330931    1.1812056   -3.5030188 
H    -3.1860144    2.3356242   -1.1821003 
H    -7.5672900    2.8060655    0.4080427 
H    -6.4185934    1.4652979    0.7122787 
H    -6.6161690    2.7709985    1.9144717 
H    -5.3819935    1.9741184   -1.6017124 
H    -6.5518006    3.3163682   -1.7717522 
H    -4.8115283    3.6305990   -1.9733911 
H    -4.8871131    5.4486871   -0.1683520 
H    -6.6539314    5.1785192   -0.0676458 
H    -5.6544952    5.1237788    1.4109328 
H    -4.6728076    3.4139072    2.7231822 
H    -0.6734683    1.8497395    2.2734625 
H    -1.5270014    4.7451077    4.0994976 
H    -3.2998310    4.8091474    4.2973801 
H    -2.2633071    4.3867659    5.6914245 
H    -1.1258633    2.1007754    5.8043150 
H    -0.2809806    2.5162374    4.2980979 
H    -1.1990879    0.9843829    4.4100229 
H    -3.7885030    1.0588403    4.6681497 
H    -4.6328104    2.6320611    4.7114545 
H    -3.5458505    2.1781993    6.0451265 
H    -1.5415147    4.1702504   -1.2921806 
H    -1.1373718    5.7396868   -5.2896600 
H    -2.4636172    6.8000821   -4.7257780 
H    -2.4910031    5.0489918   -4.3503568 
H    -0.8021987    8.3447801   -3.5109668 
H     0.4288233    7.6503921   -2.4153015 
H     0.5166026    7.3564855   -4.1744759 
H    -2.8387872    5.6961568   -1.9173442 
H    -2.6338785    7.4315151   -2.2413050 
H    -1.5878641    6.6223920   -1.0371101 
H     1.2978816    5.4314426   -4.2822456 
H     1.9070730    1.7316053   -2.1438840 
H     2.0664624    3.6797496   -6.0347510 
H     3.6051588    2.7757063   -6.1542425 
H     2.1376907    1.9707529   -5.5177014 
H     4.8364907    4.5189327   -4.7122970 
H     4.1437513    5.0387411   -3.1486740 
H     3.3461572    5.4878415   -4.6828273 
H     4.9146249    2.1878416   -4.0500144 
H     3.4964534    1.2925091   -3.4635379 
H     4.2547187    2.5448608   -2.4333425 
