197
Energy =
C    -1.9484898    3.1034368    1.4344950 
C    -2.9421396    2.6487806    0.5370877 
C    -3.6034977    1.3961971    0.7294059 
H    -3.0955650    3.1898951   -0.4055426 
Pd   -1.4109739    1.0741957    0.5394244 
P    -1.2879738   -1.1082561   -0.2236863 
P     0.8960767    1.3523819    0.1860900 
H    -1.9702601    2.6910954    2.4556140 
H    -3.7566964    1.0544783    1.7639050 
C     0.3682277    6.7127698    1.1245674 
C     0.2204628    6.0554446    2.3542681 
C    -0.5364262    4.8819226    2.4319050 
C    -1.1576545    4.3363870    1.2865935 
C    -0.9874530    5.0041227    0.0519455 
C    -0.2345943    6.1785604   -0.0265672 
H     0.9491568    7.6383362    1.0599767 
H     0.6953496    6.4552170    3.2559094 
H    -0.6558548    4.3747030    3.3936897 
H    -1.4382607    4.5998506   -0.8580787 
H    -0.1132253    6.6810436   -0.9917389 
C    -6.2229524   -0.3653777   -2.2016122 
C    -5.1961698    0.5027698   -2.6098843 
C    -4.3471096    1.0811348   -1.6619696 
C    -4.5076272    0.8135472   -0.2821476 
C    -5.5437254   -0.0598247    0.1105033 
C    -6.3902731   -0.6460857   -0.8386194 
H    -6.8873002   -0.8197692   -2.9435104 
H    -5.0530164    0.7234600   -3.6732959 
H    -3.5318780    1.7296861   -1.9964525 
H    -5.6825112   -0.2817751    1.1732740 
H    -7.1796179   -1.3298249   -0.5112885 
C    -0.3510346   -2.2699215    5.0591863 
C     0.9425670   -2.7532985    4.3534585 
C     1.4646978   -3.9974998    5.1010698 
C     2.0224036   -1.6448648    4.4301291 
C     0.6333918   -3.0474616    2.8724390 
C     0.0294747   -2.0479365    2.0780547 
C     0.9227972   -4.2779974    2.2613179 
C     0.6264554   -4.5551480    0.9048340 
C     0.9855937   -5.9247081    0.2985207 
C     2.5252825   -6.1018266    0.3393704 
C     0.3019603   -7.0456139    1.1217126 
C     0.5256494   -6.0413090   -1.1705623 
C     0.0016416   -3.5518553    0.1566802 
C    -0.2868416   -2.3037255    0.7412749 
C    -2.7991903   -2.1400174   -0.3832017 
C    -3.4837056   -2.3318229    0.8353708 
C    -4.5131479   -3.2736637    0.9393483 
C    -5.2239629   -3.5739071    2.2730254 
C    -4.7171784   -2.6699748    3.4169853 
C    -4.9401612   -5.0501920    2.6571274 
C    -6.7512303   -3.3623715    2.1190403 
C    -4.8685563   -3.9895626   -0.2275439 
C    -4.2142309   -3.8127711   -1.4565197 
C    -3.1548878   -2.8803588   -1.5143358 
C    -4.5629662   -4.6262419   -2.7181742 
C    -5.7922561   -5.5336634   -2.5060333 
C    -3.3472548   -5.5185760   -3.0833144 
C    -4.8663111   -3.6583533   -3.8901709 
C    -0.5136062   -0.9145997   -1.8769535 
C    -1.3617807   -0.6035885   -2.9617751 
C    -0.8307194   -0.3645349   -4.2331074 
C     0.5511648   -0.4461412   -4.4388142 
C     0.8965464   -0.9286766   -2.0513805 
C     1.3997516   -0.7422419   -3.3633732 
C     1.8754429   -1.0821333   -0.9338220 
C     2.7825878   -2.1625959   -0.9651641 
O     2.6887551   -3.0873840   -1.9877896 
C     3.7088482   -2.9742824   -3.0005620 
C     3.2272829   -2.0633404   -4.1261929 
O     2.7616571   -0.8072270   -3.5857250 
C     3.7405548   -2.3475864    0.0433328 
C     3.8282061   -1.4270488    1.0894889 
C     2.9639423   -0.3253007    1.1278219 
C     1.9896630   -0.1433129    0.1301522 
C     1.2206845    2.0990195   -1.4577260 
C     2.5354471    2.1069409   -1.9604371 
C     2.8154367    2.6671917   -3.2159905 
C     4.2374785    2.6864390   -3.8065675 
C     5.2351668    1.9097444   -2.9212775 
C     4.2169882    2.0217513   -5.2072691 
C     4.7104987    4.1577063   -3.9249082 
C     1.7374734    3.2127164   -3.9419757 
C     0.4053833    3.1822437   -3.4866403 
C     0.1612116    2.6098890   -2.2244831 
C    -0.7171415    3.7884509   -4.3522016 
C    -2.1166795    3.3967451   -3.8340776 
C    -0.5964070    3.2933625   -5.8155530 
C    -0.5815079    5.3327136   -4.3170862 
C     1.6942939    2.4148333    1.4493943 
C     1.3149713    2.2220825    2.7946468 
C     1.9381161    2.9453308    3.8232485 
C     1.5632101    2.7668468    5.3081324 
C     0.3053410    1.8901297    5.4872250 
C     2.7523808    2.0880666    6.0370288 
C     1.2848430    4.1471094    5.9566680 
C     2.9558077    3.8576064    3.4614744 
C     3.3437385    4.0817957    2.1300166 
C     2.6835790    3.3489130    1.1223424 
C     4.4918337    5.0333047    1.7398017 
C     5.6875332    4.1665398    1.2617097 
C     4.9515399    5.9060174    2.9261935 
C     4.0487749    5.9690046    0.5876192 
H    -0.1488861   -2.0553804    6.1237010 
H    -0.7499034   -1.3474333    4.6029098 
H    -1.1382341   -3.0425423    5.0054586 
H     1.6510286   -3.7441528    6.1591115 
H     0.7325152   -4.8236278    5.0765377 
H     2.4157277   -4.3621908    4.6751098 
H     2.2262010   -1.3785994    5.4827327 
H     1.7060133   -0.7304165    3.9000960 
H     2.9647238   -1.9872303    3.9696601 
H    -0.2054558   -1.0639394    2.5009433 
H     1.3959251   -5.0632924    2.8559076 
H     2.9186902   -6.0286251    1.3682418 
H     2.8068970   -7.0919796   -0.0616172 
H     3.0120609   -5.3260152   -0.2759491 
H     0.5412410   -8.0343647    0.6912787 
H    -0.7953824   -6.9209737    1.1146142 
H     0.6383062   -7.0480407    2.1729293 
H     1.0084928   -5.2764208   -1.8035220 
H     0.8022209   -7.0338232   -1.5666981 
H    -0.5698844   -5.9373464   -1.2646492 
H    -0.2664164   -3.7225701   -0.8886134 
H    -3.1692623   -1.7531391    1.7093153 
H    -5.2544336   -2.9140477    4.3494551 
H    -4.8933219   -1.6000819    3.2028504 
H    -3.6381597   -2.8129865    3.6052136 
H    -5.3261591   -5.7489458    1.8951384 
H    -5.4251401   -5.2962311    3.6187913 
H    -3.8543756   -5.2236543    2.7597234 
H    -7.2680367   -3.6110219    3.0628042 
H    -7.1760398   -4.0009749    1.3258621 
H    -6.9819443   -2.3116481    1.8710021 
H    -5.6763118   -4.7222436   -0.1594941 
H    -2.5899421   -2.7647649   -2.4427240 
H    -6.0164699   -6.0792519   -3.4387863 
H    -5.6164322   -6.2856071   -1.7167846 
H    -6.6883465   -4.9473835   -2.2358199 
H    -3.1105166   -6.2130695   -2.2582049 
H    -3.5673203   -6.1156328   -3.9863198 
H    -2.4458050   -4.9148602   -3.2882224 
H    -5.7238357   -3.0080848   -3.6470243 
H    -5.1104575   -4.2303503   -4.8028654 
H    -4.0041698   -3.0086439   -4.1217049 
H    -2.4423715   -0.5402605   -2.8038195 
H    -1.4973510   -0.1193881   -5.0660765 
H     0.9929956   -0.2696976   -5.4237660 
H     3.9014583   -3.9905478   -3.3850684 
H     4.6377855   -2.5797418   -2.5496907 
H     4.0575417   -1.8329484   -4.8164022 
H     2.4108607   -2.5436345   -4.6954161 
H     4.4049016   -3.2150779   -0.0070922 
H     4.5760590   -1.5607795    1.8775168 
H     3.0574777    0.4038783    1.9363526 
H     3.3305259    1.6403169   -1.3751360 
H     5.3382560    2.3656130   -1.9203510 
H     6.2335517    1.9190709   -3.3915542 
H     4.9217839    0.8584368   -2.7976891 
H     5.2360051    2.0008986   -5.6329426 
H     3.5724734    2.5715742   -5.9147873 
H     3.8422489    0.9869617   -5.1289250 
H     4.7324416    4.6425979   -2.9324623 
H     5.7276621    4.2012301   -4.3536050 
H     4.0423055    4.7473017   -4.5766903 
H     1.9443816    3.6623443   -4.9182223 
H    -0.8548456    2.5251616   -1.8289343 
H    -2.8941833    3.8081665   -4.5000473 
H    -2.2354412    2.2998671   -3.8028763 
H    -2.3107909    3.7969591   -2.8233188 
H    -0.6428548    2.1916865   -5.8615802 
H    -1.4228850    3.7021846   -6.4230086 
H     0.3480494    3.6143957   -6.2859099 
H    -0.6812814    5.7104263   -3.2843553 
H    -1.3652900    5.8051204   -4.9359583 
H     0.4013711    5.6549764   -4.7022062 
H     0.5177669    1.5060553    3.0184879 
H     0.4594401    0.8636344    5.1151522 
H     0.0520146    1.8168548    6.5586513 
H    -0.5688434    2.3213172    4.9658596 
H     2.9721153    1.1020236    5.5928171 
H     2.5163925    1.9429137    7.1065232 
H     3.6664487    2.7032034    5.9706095 
H     0.4470674    4.6622054    5.4547254 
H     1.0168628    4.0175296    7.0199622 
H     2.1654894    4.8098730    5.9149778 
H     3.4558142    4.4153571    4.2567260 
H     2.9501635    3.5051199    0.0745364 
H     5.4105997    3.5520477    0.3867053 
H     6.0252760    3.4859121    2.0627112 
H     6.5371452    4.8105737    0.9719655 
H     5.3633228    5.2984456    3.7510264 
H     5.7486380    6.5935760    2.5952405 
H     4.1213934    6.5168087    3.3236683 
H     3.1845130    6.5826720    0.8903131 
H     4.8776797    6.6446998    0.3128113 
H     3.7631390    5.4073130   -0.3186296 
