206
Energy =
C     0.5340531    1.3493753   -3.5233984 
C    -0.7184648    0.6976756   -3.7645866 
C    -1.8809779    1.1437882   -3.0936837 
H    -0.7453100   -0.2429638   -4.3288634 
Pd   -0.2601082    0.5294973   -1.6247942 
P    -1.5178124   -0.6731562   -0.0870069 
P     1.5014364    0.9592885   -0.1556059 
H     0.5073431    2.4270905   -3.3145618 
H    -1.8443588    2.1665619   -2.6853100 
C     4.3470767   -0.0930013   -4.9098617 
C     3.2851013   -0.9949777   -4.7247509 
C     2.0424350   -0.5373773   -4.2773043 
C     1.8297668    0.8352184   -4.0037417 
C     2.9097554    1.7282048   -4.1800025 
C     4.1511695    1.2686282   -4.6368487 
H     5.3192910   -0.4513523   -5.2635575 
H     3.4292572   -2.0611877   -4.9297520 
H     1.2309045   -1.2554797   -4.1196356 
H     2.7698094    2.7909870   -3.9543145 
H     4.9698733    1.9803794   -4.7826570 
C    -5.8692265   -0.4444985   -3.1431552 
C    -5.5524095    0.6854037   -2.3744083 
C    -4.2480445    1.1871924   -2.3800202 
C    -3.2310167    0.5693835   -3.1455447 
C    -3.5649764   -0.5725734   -3.9089393 
C    -4.8706785   -1.0720268   -3.9060548 
H    -6.8926425   -0.8328374   -3.1514127 
H    -6.3228764    1.1791119   -1.7729958 
H    -4.0039566    2.0680397   -1.7782802 
H    -2.8026686   -1.0711547   -4.5139158 
H    -5.1116648   -1.9584778   -4.5009427 
C    -2.5772477    4.5204030    0.1985160 
C    -3.6549671    4.0389695    1.1945967 
C    -3.4618868    4.8109328    2.5242422 
C    -5.0557035    4.3537250    0.6093827 
C    -3.5538375    2.5236202    1.4539946 
C    -2.6959448    1.6959769    0.7139810 
C    -4.3517672    1.9108518    2.4410574 
C    -4.2886703    0.5346212    2.7417294 
C    -5.2273640   -0.0669716    3.8067211 
C    -5.1763412    0.7651948    5.1118436 
C    -6.6728714   -0.0411148    3.2427475 
C    -4.8500368   -1.5251587    4.1452206 
C    -3.3908540   -0.2575527    2.0029395 
C    -2.6277472    0.3162017    0.9707979 
C    -2.5042393   -1.9373827   -0.9807041 
C    -3.8130093   -2.2936777   -0.6237119 
C    -4.4662738   -3.3567194   -1.2763386 
C    -5.8657358   -3.8381291   -0.8449547 
C    -6.7642146   -4.0979210   -2.0792644 
C    -6.5714163   -2.8061177    0.0611763 
C    -5.6902338   -5.1617904   -0.0541909 
C    -3.7729754   -4.0230370   -2.3045126 
C    -2.4813928   -3.6517045   -2.7282831 
C    -1.8536782   -2.5975317   -2.0437215 
C    -1.7931727   -4.4125433   -3.8789714 
C    -1.3231177   -5.7884268   -3.3390189 
C    -2.7816057   -4.6234132   -5.0528878 
C    -0.5683166   -3.6469306   -4.4228456 
C    -0.4654413   -1.6656647    1.0549941 
C    -0.3612574   -3.0632020    0.9043056 
C     0.4792359   -3.7923634    1.7516194 
C     1.2033278   -3.1534899    2.7633628 
C     0.2781018   -0.9944630    2.0543610 
C     1.0943355   -1.7607473    2.9274468 
C     0.1985277    0.4774373    2.3094771 
C    -0.4381567    0.8875240    3.5106366 
O    -0.9988323   -0.1138761    4.2467098 
C    -1.2935891    0.1270889    5.6348308 
C    -0.0268265    0.2018805    6.5015086 
C     0.4895232   -1.1542612    7.0149966 
C     0.9377214   -2.1837849    5.9612398 
C     2.1385935   -1.7546179    5.1001525 
O     1.7471958   -1.0601125    3.8993211 
C    -0.4793005    2.2461042    3.8722332 
C     0.1276434    3.1981085    3.0470771 
C     0.7606631    2.8184483    1.8589972 
C     0.7929140    1.4611456    1.4795213 
C     2.4388269    2.4159861   -0.7670533 
C     1.6912652    3.5388619   -1.1673072 
C     2.3176238    4.6766453   -1.7048673 
C     1.4614754    5.8980863   -2.0944148 
C     2.2870382    6.9817423   -2.8184028 
C     0.8617966    6.5091216   -0.8010458 
C     0.3120991    5.4514593   -3.0343202 
C     3.7188925    4.6423070   -1.8492962 
C     4.4952152    3.5223443   -1.4862873 
C     3.8327820    2.4059892   -0.9406063 
C     6.0308090    3.5421459   -1.6268149 
C     6.6055232    2.1131105   -1.7645766 
C     6.4720984    4.3612800   -2.8631603 
C     6.6129800    4.1993882   -0.3468188 
C     2.7301079   -0.3381882    0.2066241 
C     2.7107117   -1.5234939   -0.5500828 
C     3.6796347   -2.5148164   -0.3343111 
C     3.7001423   -3.8348138   -1.1278519 
C     2.4361189   -3.9942033   -1.9978272 
C     4.9444533   -3.8377224   -2.0535807 
C     3.7720014   -5.0348455   -0.1506571 
C     4.6834387   -2.2562497    0.6256532 
C     4.7313824   -1.0778494    1.3920971 
C     3.7118231   -0.1267065    1.1876344 
C     5.8497650   -0.7899197    2.4151549 
C     6.9281953   -1.8932153    2.4290207 
C     5.2329783   -0.6904257    3.8316244 
C     6.5361420    0.5528600    2.0555959 
H    -1.5625901    4.2798895    0.5611422 
H    -2.7044768    4.0667187   -0.8010934 
H    -2.6446955    5.6144516    0.0715362 
H    -2.4783730    4.5797748    2.9674533 
H    -4.2393081    4.5550143    3.2641797 
H    -3.5178359    5.8993164    2.3450045 
H    -5.1590663    5.4365027    0.4159952 
H    -5.2141910    3.8170023   -0.3429886 
H    -5.8588044    4.0540662    1.3048590 
H    -2.0475401    2.1076011   -0.0643380 
H    -5.0505923    2.5353337    3.0069647 
H    -5.8493497    0.3241633    5.8679868 
H    -5.4980590    1.8083621    4.9521093 
H    -4.1555610    0.7833097    5.5288226 
H    -6.9979450    0.9911162    3.0245256 
H    -7.3791332   -0.4749515    3.9732815 
H    -6.7395058   -0.6231950    2.3074187 
H    -4.9722914   -2.1944675    3.2756163 
H    -3.8044534   -1.6008455    4.4919441 
H    -5.5067214   -1.9046629    4.9467956 
H    -3.2705540   -1.3198497    2.2260721 
H    -4.3195673   -1.7411445    0.1686633 
H    -7.7656524   -4.4287190   -1.7526993 
H    -6.3553974   -4.8868249   -2.7331179 
H    -6.8828063   -3.1819999   -2.6818419 
H    -7.5895715   -3.1557827    0.3034717 
H    -6.0370184   -2.6674672    1.0169010 
H    -6.6538420   -1.8223772   -0.4336657 
H    -5.0567734   -5.0043502    0.8366016 
H    -5.2133340   -5.9381313   -0.6779585 
H    -6.6714866   -5.5444231    0.2798288 
H    -4.2654149   -4.8607481   -2.8066346 
H    -0.8437795   -2.2758921   -2.3210930 
H    -0.8342958   -6.3726413   -4.1393924 
H    -2.1748571   -6.3766029   -2.9553065 
H    -0.5996463   -5.6570808   -2.5148608 
H    -3.6460357   -5.2448402   -4.7648636 
H    -3.1642841   -3.6563756   -5.4251320 
H    -2.2722832   -5.1351012   -5.8880502 
H    -0.1214833   -4.2032764   -5.2642689 
H    -0.8530156   -2.6468950   -4.7964638 
H     0.2150795   -3.5227276   -3.6581299 
H    -0.9462095   -3.5811089    0.1405330 
H     0.5579857   -4.8782598    1.6351178 
H     1.8424388   -3.7416125    3.4256435 
H    -1.9312655   -0.7226492    5.9285709 
H    -1.9048165    1.0423569    5.7332944 
H     0.7571856    0.7332809    5.9299347 
H    -0.2503235    0.8377720    7.3779759 
H     1.3366577   -0.9637829    7.7017549 
H    -0.3016155   -1.6175440    7.6357229 
H     1.2132220   -3.1138080    6.4915619 
H     0.1012526   -2.4519642    5.2893019 
H     2.7779902   -1.0324771    5.6325001 
H     2.7746239   -2.6203040    4.8406438 
H    -0.9700142    2.5645571    4.7943800 
H     0.1142926    4.2531756    3.3398043 
H     1.2476127    3.5769022    1.2419248 
H     0.5999674    3.5163529   -1.0615902 
H     1.6309018    7.8238825   -3.0979613 
H     3.0871643    7.3860334   -2.1741698 
H     2.7478723    6.5917964   -3.7430934 
H     0.2302541    7.3825207   -1.0437873 
H     1.6629567    6.8402782   -0.1175568 
H     0.2352135    5.7766005   -0.2632312 
H    -0.2947864    6.3232197   -3.3358703 
H    -0.3677369    4.7330151   -2.5422180 
H     0.7111410    4.9781800   -3.9489952 
H     4.2250509    5.5139475   -2.2671244 
H     4.3990367    1.5159585   -0.6610535 
H     6.1525320    1.5761914   -2.6153042 
H     7.6959771    2.1652923   -1.9269718 
H     6.4396491    1.5114657   -0.8560235 
H     6.0097472    3.9721879   -3.7873932 
H     7.5684217    4.3034584   -2.9769811 
H     6.2117388    5.4296668   -2.7734185 
H     7.7160406    4.2376802   -0.3999964 
H     6.3294789    3.6241598    0.5519929 
H     6.2361591    5.2302569   -0.2258844 
H     1.9233948   -1.6512631   -1.2974663 
H     2.3717044   -3.2011458   -2.7615532 
H     1.5175349   -3.9638290   -1.3850152 
H     2.4613894   -4.9632194   -2.5260161 
H     5.8793359   -3.7658567   -1.4709439 
H     4.9830321   -4.7707661   -2.6443521 
H     4.9118610   -2.9824991   -2.7511597 
H     4.6908979   -5.0155094    0.4598379 
H     3.7671324   -5.9847553   -0.7142399 
H     2.9065474   -5.0307053    0.5340061 
H     5.4589884   -3.0113772    0.7746845 
H     3.6843024    0.7922290    1.7826968 
H     7.7110294   -1.6371591    3.1637562 
H     6.5088634   -2.8729083    2.7187983 
H     7.4155022   -2.0004050    1.4439206 
H     4.8109691   -1.6638063    4.1318637 
H     4.4240209    0.0581607    3.8747341 
H     6.0073697   -0.4096115    4.5677760 
H     6.9976556    0.4998020    1.0545296 
H     5.8229185    1.3951743    2.0592084 
H     7.3311086    0.7823538    2.7870791 
