206
Energy =
C     0.3507889    1.3858318   -3.5511223 
C    -0.7791571    0.5383794   -3.7767039 
C    -1.9992938    0.7974617   -3.1093897 
H    -0.6552694   -0.3973080   -4.3360500 
Pd   -0.3036246    0.4645022   -1.6323062 
P    -1.4242701   -0.8253472   -0.0537755 
P     1.3910207    1.1058237   -0.1683789 
H     0.1446440    2.4411797   -3.3277442 
H    -2.1324444    1.8187490   -2.7186350 
C     4.2900053    0.6884010   -5.1457592 
C     3.8739153    1.9815056   -4.7973902 
C     2.5949236    2.1932925   -4.2697839 
C     1.6991008    1.1170165   -4.0841892 
C     2.1373787   -0.1843850   -4.4254650 
C     3.4142686   -0.3938175   -4.9553224 
H     5.2894022    0.5218821   -5.5607875 
H     4.5465053    2.8335124   -4.9393820 
H     2.2806618    3.2050453   -3.9952989 
H     1.4767814   -1.0428258   -4.2626657 
H     3.7325035   -1.4078568   -5.2179362 
C    -5.6806147   -1.4109912   -3.1957974 
C    -4.5739795   -1.8904059   -3.9159778 
C    -3.3652739   -1.1885611   -3.9029016 
C    -3.2384466    0.0116430   -3.1666859 
C    -4.3604034    0.4766654   -2.4409872 
C    -5.5682107   -0.2270232   -2.4520114 
H    -6.6287366   -1.9576900   -3.2170617 
H    -4.6536799   -2.8191012   -4.4897043 
H    -2.5160899   -1.5747565   -4.4737117 
H    -4.2760191    1.3991965   -1.8580983 
H    -6.4236053    0.1516497   -1.8828760 
C    -4.0038454    4.5387406    2.2016109 
C    -4.0844855    3.6937539    0.9052526 
C    -5.4907866    3.8475438    0.2710398 
C    -3.0288591    4.2307964   -0.0864986 
C    -3.8484053    2.2082038    1.2392288 
C    -2.8821850    1.4398566    0.5730637 
C    -4.6237831    1.5613001    2.2230787 
C    -4.4356736    0.2132999    2.5918548 
C    -5.3550442   -0.4392055    3.6435760 
C    -4.8221202   -1.8164970    4.0945817 
C    -5.4866114    0.4639971    4.8945145 
C    -6.7549446   -0.6288431    3.0009806 
C    -3.4309928   -0.5143924    1.9277639 
C    -2.6873626    0.0865601    0.8976933 
C    -2.1961156   -2.2526651   -0.9095986 
C    -3.4467134   -2.7854594   -0.5673542 
C    -3.9086326   -3.9679338   -1.1776431 
C    -5.2314910   -4.6362383   -0.7535823 
C    -4.8804473   -5.8637319    0.1288266 
C    -6.0314708   -5.1111871   -1.9913597 
C    -6.1230480   -3.6745461    0.0621816 
C    -3.0874108   -4.5712370   -2.1488490 
C    -1.8508783   -4.0303208   -2.5556859 
C    -1.4146059   -2.8601748   -1.9140255 
C    -1.0252382   -4.7290526   -3.6536695 
C    -1.9154079   -4.9910651   -4.8950314 
C     0.1790954   -3.8748667   -4.1028294 
C    -0.4993436   -6.0766670   -3.0951514 
C    -0.3428935   -1.6265655    1.2055552 
C    -0.1384061   -3.0207459    1.1943172 
C     0.6940797   -3.6079959    2.1524365 
C     1.3180498   -2.8291765    3.1314962 
C     0.2902178   -0.8162321    2.1769031 
C     1.1096100   -1.4382823    3.1553942 
C     0.0730740    0.6571273    2.3087756 
C    -0.6507441    1.0910808    3.4522758 
O    -1.1597098    0.0974195    4.2343330 
C    -1.5559188    0.4111651    5.5819783 
C    -0.3538212    0.6848873    6.4999906 
C     0.2653232   -0.5657912    7.1492735 
C     0.8576183   -1.6301543    6.2076293 
C     2.0534673   -1.1652289    5.3581279 
O     1.6589365   -0.6075434    4.0885577 
C    -0.8205060    2.4612482    3.7183943 
C    -0.2519109    3.4046087    2.8575290 
C     0.4594576    3.0019754    1.7232375 
C     0.6143134    1.6305736    1.4314098 
C     2.2380781    2.6027090   -0.8121799 
C     1.4252798    3.6659756   -1.2484145 
C     1.9860699    4.8414395   -1.7755955 
C     1.0579182    6.0025398   -2.1857016 
C     0.3842621    6.5658258   -0.9067536 
C    -0.0358751    5.4836328   -3.1542898 
C     1.8262307    7.1426125   -2.8855314 
C     3.3900895    4.8999940   -1.8913687 
C     4.2303154    3.8374374   -1.5013504 
C     3.6320205    2.6871070   -0.9506741 
C     5.7654660    3.9402368   -1.6056201 
C     6.1978694    4.9147786   -2.7249759 
C     6.2974016    4.4656294   -0.2455369 
C     6.3971429    2.5571536   -1.8979970 
C     2.6986412   -0.0973147    0.2451476 
C     2.8059689   -1.2739464   -0.5126532 
C     3.8555956   -2.1822251   -0.2782125 
C     3.9430338   -3.4805799   -1.1059076 
C     3.9920221   -3.1198565   -2.6111630 
C     5.1952717   -4.3134395   -0.7624798 
C     2.6876245   -4.3436198   -0.8228151 
C     4.7999504   -1.8485508    0.7122868 
C     4.7214790   -0.6703931    1.4839516 
C     3.6351233    0.1923274    1.2539472 
C     5.7838934   -0.2958836    2.5377661 
C     5.1222834   -0.2661688    3.9370665 
C     6.3539687    1.1072878    2.2062021 
C     6.9562593   -1.2983538    2.5704617 
H    -4.7734034    4.2405032    2.9339774 
H    -3.0153498    4.4241346    2.6777815 
H    -4.1593435    5.6076406    1.9708198 
H    -6.2826360    3.5033067    0.9586817 
H    -5.5696949    3.2578161   -0.6596469 
H    -5.6897267    4.9061315    0.0257695 
H    -3.1991431    5.3054482   -0.2704795 
H    -2.0063195    4.1105385    0.3128029 
H    -3.0823627    3.7182820   -1.0641402 
H    -2.2446091    1.8808804   -0.1981444 
H    -5.4051457    2.1358495    2.7309496 
H    -5.4714679   -2.2269805    4.8867844 
H    -3.7958461   -1.7401385    4.4949167 
H    -4.8137876   -2.5466615    3.2665575 
H    -4.5028651    0.6366395    5.3625442 
H    -6.1428031   -0.0176639    5.6405000 
H    -5.9274629    1.4462471    4.6539704 
H    -7.1884858    0.3400302    2.6971195 
H    -6.6905721   -1.2688579    2.1037860 
H    -7.4475721   -1.1045025    3.7184445 
H    -3.2114852   -1.5462547    2.2102863 
H    -4.0571466   -2.2775749    0.1803758 
H    -5.8012743   -6.3764273    0.4605511 
H    -4.3140043   -5.5527098    1.0244550 
H    -4.2639872   -6.5909229   -0.4282474 
H    -6.9850816   -5.5661659   -1.6713238 
H    -6.2599780   -4.2668073   -2.6628918 
H    -5.4846061   -5.8725346   -2.5730426 
H    -6.3354602   -2.7471350   -0.4980198 
H    -5.6559634   -3.3973203    1.0230179 
H    -7.0842416   -4.1638006    0.2953656 
H    -3.4304160   -5.4978315   -2.6190151 
H    -0.4564710   -2.4012084   -2.1806792 
H    -1.3255897   -5.4826633   -5.6885934 
H    -2.3143465   -4.0445551   -5.3009989 
H    -2.7700414   -5.6479605   -4.6611334 
H    -0.1477532   -2.8964410   -4.4987742 
H     0.8926249   -3.6968451   -3.2812416 
H     0.7269191   -4.3940659   -4.9077255 
H     0.0937930   -6.6072958   -3.8615252 
H     0.1435401   -5.9089114   -2.2134002 
H    -1.3304465   -6.7361610   -2.7905635 
H    -0.6377252   -3.6464494    0.4510427 
H     0.8490458   -4.6917923    2.1458617 
H     1.9533851   -3.3078359    3.8800992 
H    -2.1197965   -0.4765013    5.9124571 
H    -2.2619567    1.2612990    5.5742483 
H     0.4052859    1.2469753    5.9242581 
H    -0.6875304    1.3617499    7.3081380 
H     1.0568481   -0.2358086    7.8492044 
H    -0.5061836   -1.0526421    7.7766969 
H     1.1927020   -2.4819572    6.8275878 
H     0.0814759   -2.0330788    5.5305684 
H     2.6063203   -0.3490678    5.8506043 
H     2.7712914   -1.9894428    5.1964237 
H    -1.3786539    2.7959788    4.5952347 
H    -0.3601513    4.4718894    3.0772026 
H     0.9107488    3.7587758    1.0788509 
H     0.3359366    3.5691792   -1.1717836 
H    -0.2933591    7.3998894   -1.1633706 
H    -0.2113388    5.7917751   -0.3916434 
H     1.1428173    6.9415321   -0.1980803 
H    -0.6910184    6.3146171   -3.4697475 
H    -0.6793959    4.7217634   -2.6790560 
H     0.4141410    5.0396981   -4.0598252 
H     1.1224801    7.9408139   -3.1777249 
H     2.3338112    6.7890377   -3.8003514 
H     2.5825092    7.5952788   -2.2208546 
H     3.8451499    5.7992578   -2.3083071 
H     4.2522047    1.8453574   -0.6363180 
H     5.8916394    5.9541000   -2.5158366 
H     7.2977763    4.9131383   -2.8152952 
H     5.7740528    4.6199801   -3.7012105 
H     5.8782948    5.4612912   -0.0173733 
H     7.3990051    4.5495515   -0.2682965 
H     6.0198940    3.7815685    0.5748714 
H     7.4872320    2.6668886   -2.0330229 
H     5.9748414    2.1098477   -2.8140648 
H     6.2418286    1.8451903   -1.0698451 
H     2.0559587   -1.4693412   -1.2875246 
H     4.8689511   -2.4891921   -2.8375171 
H     3.0932694   -2.5639064   -2.9232525 
H     4.0532897   -4.0373990   -3.2235724 
H     5.2002110   -4.6296322    0.2955841 
H     5.2134999   -5.2266299   -1.3822035 
H     6.1257675   -3.7540594   -0.9637225 
H     2.6547375   -4.6475569    0.2368476 
H     2.6995488   -5.2547368   -1.4479090 
H     1.7563563   -3.7917148   -1.0366562 
H     5.6320309   -2.5304695    0.8887414 
H     3.5155537    1.1052728    1.8467268 
H     5.8528828    0.0556794    4.7007016 
H     4.2615133    0.4225377    3.9656944 
H     4.7602643   -1.2721564    4.2094388 
H     5.5695085    1.8832275    2.2247062 
H     6.8195799    1.1157005    1.2053816 
H     7.1236305    1.3914638    2.9455881 
H     6.6205484   -2.3145140    2.8428085 
H     7.4751826   -1.3522778    1.5972039 
H     7.6945254   -0.9795562    3.3264283 
