197
Energy =
C    -0.3626481   -3.3017134    1.6569123 
C    -0.3406503   -3.7565872    0.2992426 
C     0.8281722   -3.5963329   -0.4807726 
H    -1.2734040   -4.0757876   -0.1824316 
Pd    0.0643058   -1.5970836    0.3007496 
P     0.3777198   -0.2687793   -1.5836381 
P    -0.0291874    0.2380187    1.7182451 
H     0.5842943   -3.3484751    2.2122203 
H     1.7676031   -3.4476230    0.0753516 
C    -3.8531659   -3.2447980    4.1818259 
C    -4.0034985   -3.2247190    2.7850336 
C    -2.8801389   -3.2316879    1.9519563 
C    -1.5749989   -3.2752747    2.4974192 
C    -1.4406164   -3.2889187    3.9036550 
C    -2.5653585   -3.2745805    4.7359533 
H    -4.7349391   -3.2360550    4.8307763 
H    -5.0050521   -3.1978305    2.3438221 
H    -3.0186155   -3.1903748    0.8658667 
H    -0.4404532   -3.3087388    4.3451879 
H    -2.4314217   -3.2921934    5.8225636 
C     1.5049821   -4.5144585   -4.6205340 
C     2.5379552   -4.0114526   -3.8157185 
C     2.2949932   -3.7243970   -2.4694851 
C     1.0168199   -3.9291589   -1.8983572 
C    -0.0146586   -4.4310853   -2.7247453 
C     0.2288501   -4.7190222   -4.0706935 
H     1.6940732   -4.7498907   -5.6726528 
H     3.5352881   -3.8457869   -4.2362224 
H     3.1033910   -3.3308867   -1.8453841 
H    -1.0137932   -4.6005125   -2.3137444 
H    -0.5823867   -5.1026229   -4.6971687 
C    -6.3794933    1.9745536    0.7868008 
C    -5.1695721    1.0539476    0.5256897 
C    -4.9640236    0.9297362   -1.0055716 
C    -5.4811720   -0.3442563    1.1136941 
C    -3.8723854    1.5995961    1.1564503 
C    -2.7032473    0.8085555    1.1457093 
C    -3.7871989    2.8762354    1.7368105 
C    -2.5953225    3.3966371    2.2941924 
C    -2.5836109    4.8111100    2.9035693 
C    -3.6051995    4.8690511    4.0679149 
C    -2.9700779    5.8373373    1.8074540 
C    -1.1903946    5.1908068    3.4485100 
C    -1.4534569    2.5865354    2.2634977 
C    -1.5125091    1.2972005    1.6961799 
C     0.2345274   -0.2216469    3.4747340 
C     1.2754105   -1.1256728    3.7820594 
C     1.5121886   -1.5255915    5.1040412 
C     2.6557596   -2.4878730    5.4811402 
C     3.4450390   -2.9639884    4.2428963 
C     3.6341237   -1.7544408    6.4346466 
C     2.0717142   -3.7340531    6.1950955 
C     0.6547912   -1.0175203    6.1096090 
C    -0.4051629   -0.1397992    5.8320903 
C    -0.6013426    0.2537543    4.4907552 
C    -1.3312704    0.4385780    6.9198182 
C    -1.0656866   -0.1887853    8.3035717 
C    -2.8124118    0.1828387    6.5395168 
C    -1.0837074    1.9682775    7.0084747 
C     1.3833977    1.3596657    1.2760930 
C     2.5741613    1.2947617    2.0263834 
C     3.6919461    2.0591270    1.6723762 
C     3.6251090    2.9302579    0.5825640 
C     1.3017358    2.2369042    0.1575388 
C     2.4280927    3.0421603   -0.1386552 
C     0.0870196    2.4104050   -0.6949704 
C    -0.5265791    3.6824695   -0.7361631 
O    -0.0083052    4.7087446    0.0315762 
C     0.7280999    5.6990169   -0.7160288 
C     2.2082846    5.3237905   -0.7627140 
O     2.3562480    3.9492668   -1.1792230 
C    -1.6660351    3.9239965   -1.5182552 
C    -2.1817282    2.9041479   -2.3203185 
C    -1.5659263    1.6465934   -2.3359339 
C    -0.4405119    1.3889732   -1.5303155 
C     2.1132757    0.1188583   -1.9868907 
C     2.4370633    1.0887096   -2.9521138 
C     3.7801761    1.4116942   -3.2062414 
C     4.1853954    2.4854869   -4.2333918 
C     5.0012495    1.8173151   -5.3690203 
C     5.0468212    3.5629654   -3.5248235 
C     2.9536791    3.1835705   -4.8480152 
C     4.7706823    0.7313204   -2.4669745 
C     4.4747486   -0.2202600   -1.4712252 
C     3.1204566   -0.5133737   -1.2408000 
C     5.6044850   -0.9187837   -0.6897313 
C     5.0582268   -1.7079057    0.5212642 
C     6.6187573    0.1274376   -0.1641620 
C     6.3254091   -1.9024177   -1.6476679 
C    -0.4272390   -1.0743833   -3.0166534 
C    -1.6811215   -1.6696605   -2.7711351 
C    -2.4415743   -2.1998570   -3.8251545 
C    -3.8255606   -2.8407338   -3.6021972 
C    -4.9032577   -1.9171788   -4.2270410 
C    -4.1425460   -3.0267677   -2.1024817 
C    -3.8769989   -4.2340491   -4.2786866 
C    -1.8996416   -2.1122001   -5.1243197 
C    -0.6315657   -1.5622878   -5.3950958 
C     0.1058866   -1.0453209   -4.3121187 
C    -0.1127610   -1.4643297   -6.8432262 
C     1.4051186   -1.1776586   -6.8885626 
C    -0.3824616   -2.7790845   -7.6154466 
C    -0.8660074   -0.2994130   -7.5387390 
H    -7.2855876    1.5320659    0.3380772 
H    -6.5663782    2.1026323    1.8675230 
H    -6.2419657    2.9731120    0.3360780 
H    -5.8540264    0.4764204   -1.4780533 
H    -4.7961758    1.9213682   -1.4580210 
H    -4.0885288    0.3021477   -1.2462049 
H    -6.4213974   -0.7359834    0.6862727 
H    -5.5890910   -0.2988355    2.2112343 
H    -4.6821106   -1.0684427    0.8861873 
H    -2.7080036   -0.1937261    0.7028951 
H    -4.6802623    3.5057300    1.7555239 
H    -3.6086092    5.8754807    4.5231154 
H    -4.6315111    4.6514073    3.7248204 
H    -3.3456247    4.1361093    4.8527296 
H    -2.9840684    6.8582251    2.2294178 
H    -3.9704380    5.6333949    1.3876694 
H    -2.2334159    5.8074875    0.9866840 
H    -0.8688026    4.5110583    4.2578601 
H    -1.2226419    6.2118939    3.8664564 
H    -0.4304997    5.1719262    2.6483745 
H    -0.5025662    2.9473701    2.6622464 
H     1.8935845   -1.5158695    2.9683418 
H     2.7996131   -3.5112147    3.5316628 
H     4.2483429   -3.6524048    4.5563897 
H     3.9183303   -2.1227608    3.7060001 
H     3.1303753   -1.4268222    7.3601615 
H     4.0615183   -0.8613801    5.9455529 
H     4.4645613   -2.4243708    6.7203866 
H     2.8846678   -4.4223233    6.4866949 
H     1.5188983   -3.4608162    7.1099500 
H     1.3813442   -4.2834772    5.5306932 
H     0.8268906   -1.3297929    7.1425615 
H    -1.4179085    0.9352908    4.2395523 
H    -1.2189032   -1.2826735    8.2893308 
H    -1.7622374    0.2382107    9.0453393 
H    -0.0399219    0.0148852    8.6580539 
H    -3.0820544    0.6616468    5.5822009 
H    -3.0156125   -0.8970446    6.4445396 
H    -3.4775275    0.5953635    7.3186744 
H    -0.0338493    2.1823453    7.2746655 
H    -1.3009217    2.4675143    6.0474827 
H    -1.7354061    2.4172949    7.7792439 
H     2.6286007    0.6523636    2.9080379 
H     4.6115520    1.9820582    2.2612429 
H     4.4818498    3.5423454    0.2857980 
H     0.3121573    5.7757926   -1.7370820 
H     0.5912218    6.6650224   -0.2005320 
H     2.6776861    5.4612365    0.2281823 
H     2.7414454    5.9478346   -1.5006358 
H    -2.1262579    4.9161010   -1.4930581 
H    -3.0606090    3.0881779   -2.9461316 
H    -1.9595257    0.8647117   -2.9894311 
H     1.6310794    1.6120797   -3.4711780 
H     4.3975761    1.0494242   -5.8848733 
H     5.9130454    1.3298519   -4.9819818 
H     5.3112792    2.5719583   -6.1138093 
H     4.4777881    4.0154056   -2.6948731 
H     5.9799326    3.1390278   -3.1151076 
H     5.3269527    4.3570941   -4.2397586 
H     2.3151077    2.4745506   -5.4052079 
H     3.2839380    3.9598422   -5.5596974 
H     2.3415202    3.6703900   -4.0686920 
H     5.8206898    0.9719571   -2.6622225 
H     2.8220127   -1.2154606   -0.4580529 
H     5.8951747   -2.1505584    1.0881381 
H     4.4891731   -1.0528557    1.2046871 
H     4.3998201   -2.5392569    0.2113720 
H     7.1054284    0.6800795   -0.9854133 
H     7.4147872   -0.3732210    0.4146970 
H     6.1189630    0.8602503    0.4920441 
H     7.1464708   -2.4228149   -1.1227323 
H     5.6227623   -2.6639529   -2.0307875 
H     6.7549277   -1.3714414   -2.5149784 
H    -2.0529232   -1.7013757   -1.7411815 
H    -4.8877012   -0.9213893   -3.7500099 
H    -5.9099624   -2.3514545   -4.0909039 
H    -4.7350215   -1.7796756   -5.3092481 
H    -4.1870591   -2.0654667   -1.5631286 
H    -5.1251391   -3.5150001   -1.9864060 
H    -3.3907067   -3.6688170   -1.6088204 
H    -3.7104488   -4.1722820   -5.3672853 
H    -4.8662664   -4.6976872   -4.1192140 
H    -3.1112723   -4.9071537   -3.8540033 
H    -2.4889555   -2.5002611   -5.9606027 
H     1.0936620   -0.6096768   -4.4724589 
H     1.7521120   -1.1784947   -7.9360749 
H     1.9759687   -1.9444285   -6.3358656 
H     1.6536790   -0.1894890   -6.4625660 
H    -1.4604337   -2.9965930   -7.7041420 
H     0.0210885   -2.7029187   -8.6401478 
H     0.0998920   -3.6367818   -7.1171131 
H    -0.5259491   -0.1897951   -8.5842969 
H    -0.6833390    0.6540801   -7.0122960 
H    -1.9553270   -0.4800640   -7.5484490 
