200
Energy =
C     3.4524496    0.2148444    1.3760247 
C     3.4391042    1.5230175    0.8004286 
C     2.5380439    2.5170575    1.2405683 
H     4.0035427    1.7097284   -0.1221214 
Pd    1.4257812    0.6407279    0.5670087 
P    -0.4459003    1.4991792   -0.5218346 
P     0.4557816   -1.4612038    0.8475301 
H     3.2192489    0.1244890    2.4451496 
H     2.0647984    2.3785232    2.2264341 
C     5.6189570   -3.1235892   -0.2779746 
C     5.1890586   -3.1385295    1.0566056 
C     4.4943014   -2.0459702    1.5900892 
C     4.2076706   -0.9129859    0.7955748 
C     4.6450072   -0.9133023   -0.5509251 
C     5.3476528   -2.0004957   -1.0777222 
H     6.1642544   -3.9771866   -0.6934490 
H     5.3988178   -4.0052853    1.6910626 
H     4.1629634   -2.0687266    2.6337215 
H     4.4239675   -0.0577112   -1.1985161 
H     5.6833190   -1.9747187   -2.1196905 
C     2.2123329    6.4908621   -0.3652824 
C     1.1587320    5.9310166    0.3741174 
C     1.2775680    4.6423531    0.9021410 
C     2.4461280    3.8772228    0.6845910 
C     3.5047791    4.4573625   -0.0499766 
C     3.3891930    5.7532866   -0.5646724 
H     2.1214329    7.5014383   -0.7759569 
H     0.2372996    6.4995949    0.5366091 
H     0.4462196    4.2070016    1.4663192 
H     4.4400398    3.9056281   -0.1875032 
H     4.2270425    6.1954347   -1.1134434 
C     1.3099895   -2.8337178   -5.3715710 
C     2.1634076   -2.6697811   -4.0894077 
C     2.6657200   -1.2107853   -4.0334776 
C     3.3833621   -3.6247952   -4.1531925 
C     1.3290244   -3.0300918   -2.8448805 
C     1.2873822   -2.2082583   -1.7048015 
C     0.5898495   -4.2282285   -2.8098239 
C    -0.2087594   -4.6158851   -1.7143236 
C    -1.0021064   -5.9350638   -1.7685157 
C    -1.9140385   -5.9326740   -3.0216605 
C    -0.0048672   -7.1190134   -1.8520606 
C    -1.8916076   -6.1199251   -0.5211647 
C    -0.2509968   -3.7588683   -0.6032752 
C     0.5064481   -2.5732106   -0.5964770 
C     1.2162849   -2.3526255    2.2585104 
C     1.4483556   -1.6146665    3.4368856 
C     2.0454737   -2.2148000    4.5564571 
C     2.3530861   -1.4326761    5.8477890 
C     1.5844972   -2.0748635    7.0306842 
C     1.9367593    0.0498794    5.7415584 
C     3.8788356   -1.4918219    6.1187787 
C     2.3888632   -3.5808568    4.4570916 
C     2.1804448   -4.3424259    3.2920037 
C     1.5946057   -3.7006471    2.1826403 
C     2.5441189   -5.8403547    3.2622061 
C     1.5178373   -6.5992660    4.1446021 
C     2.4913682   -6.4151134    1.8295539 
C     3.9690625   -6.0667767    3.8251042 
C    -1.3365036   -1.3417597    1.2988012 
C    -1.7538842   -1.5729394    2.6247867 
C    -3.1034077   -1.4497288    2.9777655 
C    -4.0565537   -1.0985486    2.0170928 
C    -2.2912246   -0.9913860    0.3100124 
C    -3.6513128   -0.8886738    0.6904966 
C    -1.9746537   -0.8090789   -1.1396295 
C    -2.5325679   -1.7490530   -2.0417773 
O    -3.2503139   -2.7759683   -1.4809771 
C    -4.5278046   -3.1177335   -2.0530223 
C    -5.5433676   -1.9756037   -1.9549404 
C    -5.6824508   -1.3716469   -0.5549307 
O    -4.5454150   -0.5219574   -0.2812716 
C    -2.3165703   -1.6467130   -3.4239323 
C    -1.5638902   -0.5786075   -3.9236483 
C    -1.0199433    0.3755874   -3.0560712 
C    -1.2182310    0.2675499   -1.6644667 
C    -1.7929013    2.0697015    0.5681173 
C    -3.0804396    2.3388418    0.0632543 
C    -4.0853739    2.8180112    0.9150731 
C    -5.5119527    3.1156166    0.4164692 
C    -6.5125487    2.2345803    1.2079500 
C    -5.6738396    2.8017798   -1.0858871 
C    -5.8312042    4.6145861    0.6476194 
C    -3.7615720    3.0168712    2.2779178 
C    -2.4938819    2.7337077    2.8135603 
C    -1.5114912    2.2463616    1.9290437 
C    -2.1490501    2.9034288    4.3060748 
C    -3.2777288    3.6049140    5.0893350 
C    -0.8565583    3.7477802    4.4485347 
C    -1.9164501    1.4987701    4.9191274 
C    -0.0066707    2.8850227   -1.6354880 
C     1.2155811    2.7775881   -2.3223759 
C     1.5802774    3.7257285   -3.2938010 
C     2.8532092    3.5554242   -4.1464463 
C     3.5389903    4.9185216   -4.4023072 
C     2.4298756    2.9285562   -5.5017039 
C     3.8776710    2.6197851   -3.4649640 
C     0.6947792    4.7988271   -3.5159085 
C    -0.5193036    4.9543749   -2.8155071 
C    -0.8627378    3.9728333   -1.8702229 
C    -1.4334117    6.1591263   -3.1151985 
C    -2.6914492    6.1673286   -2.2201307 
C    -0.6536892    7.4763211   -2.8718534 
C    -1.8851073    6.0899988   -4.5970948 
H     1.9030650   -2.5505248   -6.2590606 
H     0.4154762   -2.1891773   -5.3300611 
H     0.9750840   -3.8747297   -5.5171945 
H     3.2149183   -0.9660482   -4.9590849 
H     1.8245531   -0.5012692   -3.9378263 
H     3.3538384   -1.0486860   -3.1872470 
H     4.0171293   -3.3851653   -5.0262098 
H     3.0603288   -4.6766112   -4.2440135 
H     3.9956026   -3.5360191   -3.2394749 
H     1.8423394   -1.2669609   -1.6652431 
H     0.6269065   -4.8873122   -3.6832598 
H    -2.5105872   -6.8612971   -3.0633171 
H    -2.6050251   -5.0738080   -2.9892421 
H    -1.3304187   -5.8677995   -3.9559596 
H     0.6327269   -7.0499366   -2.7505634 
H     0.6560936   -7.1372477   -0.9677532 
H    -0.5508638   -8.0783711   -1.8964928 
H    -2.4650395   -7.0589910   -0.6081478 
H    -1.2904686   -6.1836294    0.4035657 
H    -2.6074782   -5.2864377   -0.4139990 
H    -0.8872900   -3.9876106    0.2546620 
H     1.1621519   -0.5584923    3.4617042 
H     1.8713441   -3.1302126    7.1781274 
H     0.4948432   -2.0392036    6.8547765 
H     1.8018840   -1.5322805    7.9678506 
H     2.4712309    0.5682433    4.9244016 
H     0.8515526    0.1623724    5.5743235 
H     2.1844059    0.5730357    6.6809700 
H     4.2306765   -2.5288416    6.2537660 
H     4.1262236   -0.9298832    7.0368701 
H     4.4434445   -1.0477188    5.2794905 
H     2.8459927   -4.0668091    5.3248827 
H     1.4394314   -4.2454959    1.2504963 
H     1.5432052   -6.2383815    5.1877739 
H     1.7413784   -7.6811622    4.1504460 
H     0.4920913   -6.4588189    3.7603894 
H     3.1698634   -5.8710367    1.1485820 
H     2.7990899   -7.4747107    1.8433720 
H     1.4724317   -6.3738606    1.4062332 
H     4.7214275   -5.5169638    3.2337178 
H     4.2223231   -7.1407297    3.7888114 
H     4.0584341   -5.7427226    4.8758532 
H    -1.0261253   -1.8650228    3.3855086 
H    -3.4108107   -1.6265353    4.0134730 
H    -5.1108053   -0.9810345    2.2849000 
H    -4.4163791   -3.4497996   -3.1029280 
H    -4.8537917   -3.9886654   -1.4612514 
H    -5.2735153   -1.1634462   -2.6541497 
H    -6.5258358   -2.3667196   -2.2800406 
H    -6.5808480   -0.7326403   -0.5018626 
H    -5.7640238   -2.1564220    0.2198956 
H    -2.7313846   -2.3987741   -4.1006359 
H    -1.4034850   -0.4838974   -5.0024260 
H    -0.4511782    1.2144414   -3.4649027 
H    -3.2891244    2.1401492   -0.9901293 
H    -7.5437832    2.4132940    0.8546896 
H    -6.2711530    1.1675466    1.0659122 
H    -6.4854276    2.4518217    2.2896160 
H    -5.4519902    1.7420549   -1.2987170 
H    -6.7123769    3.0072448   -1.3980606 
H    -5.0105069    3.4294963   -1.7071909 
H    -5.1231736    5.2546300    0.0918443 
H    -6.8535192    4.8460216    0.2989987 
H    -5.7701846    4.8861064    1.7157811 
H    -4.5421381    3.3940899    2.9433007 
H    -0.5145176    1.9792727    2.2972184 
H    -3.4911433    4.6090717    4.6824958 
H    -4.2124916    3.0175456    5.0752007 
H    -2.9791557    3.7250650    6.1449946 
H    -0.6160850    3.8987444    5.5156597 
H    -0.9774292    4.7393832    3.9781721 
H     0.0130414    3.2527928    3.9814636 
H    -1.1238236    0.9513163    4.3802803 
H    -2.8358803    0.8919491    4.8616269 
H    -1.6187908    1.5846595    5.9796897 
H     1.8701463    1.9281456   -2.0998867 
H     2.9018328    5.6008161   -4.9899089 
H     4.4712716    4.7691870   -4.9743702 
H     3.7900839    5.4172004   -3.4508995 
H     3.3097231    2.7893986   -6.1556923 
H     1.9557810    1.9430551   -5.3452749 
H     1.7069867    3.5760048   -6.0281490 
H     4.1505141    2.9938538   -2.4630820 
H     4.7967828    2.5666824   -4.0733113 
H     3.4951208    1.5899970   -3.3618801 
H     0.9602435    5.5474153   -4.2683047 
H    -1.7933103    4.0508512   -1.3060548 
H    -2.4310566    6.2161889   -1.1476390 
H    -3.3091523    7.0507843   -2.4560261 
H    -3.3165908    5.2714787   -2.3826266 
H    -1.2918951    8.3459447   -3.1089832 
H     0.2506305    7.5403667   -3.5010965 
H    -0.3402733    7.5551885   -1.8170567 
H    -2.5470302    6.9416253   -4.8355380 
H    -2.4386526    5.1550698   -4.7940074 
H    -1.0245517    6.1284349   -5.2871702 
