197
Energy =
C    -1.8958379    3.1013980    1.3971441 
C    -2.8831224    2.6466295    0.4934015 
C    -3.5527903    1.3986651    0.6903480 
H    -3.0258047    3.1835009   -0.4533125 
Pd   -1.3615140    1.0626858    0.5148043 
P    -1.2440693   -1.1296545   -0.2237200 
P     0.9497596    1.3469928    0.1633973 
H    -1.9289878    2.6935999    2.4197941 
H    -3.7142737    1.0654976    1.7263097 
C     0.5143379    6.6485720    1.0814392 
C     0.3090906    6.0245594    2.3204659 
C    -0.4832372    4.8750670    2.4012267 
C    -1.0883137    4.3233961    1.2501733 
C    -0.8742028    4.9663179    0.0095629 
C    -0.0808181    6.1136768   -0.0729917 
H     1.1353489    7.5475844    1.0115584 
H     0.7724584    6.4274589    3.2264714 
H    -0.6388914    4.3892824    3.3690648 
H    -1.3166287    4.5594996   -0.9028852 
H     0.0799714    6.5926663   -1.0442546 
C    -6.1715319   -0.3645026   -2.2404498 
C    -5.1514378    0.5116161   -2.6484215 
C    -4.3014549    1.0897063   -1.7011311 
C    -4.4538142    0.8131081   -0.3218168 
C    -5.4817345   -0.0706290    0.0700680 
C    -6.3296881   -0.6555330   -0.8786155 
H    -6.8383484   -0.8165752   -2.9815412 
H    -5.0154966    0.7401494   -3.7111126 
H    -3.4944850    1.7485438   -2.0359754 
H    -5.6138514   -0.3006051    1.1321384 
H    -7.1135712   -1.3457724   -0.5520021 
C     2.3773024   -6.2633186    0.4517617 
C     0.8467854   -6.0178518    0.4135435 
C     0.1171023   -7.0790015    1.2763196 
C     0.3665520   -6.1644163   -1.0457058 
C     0.5539658   -4.6148818    0.9767340 
C    -0.0297664   -3.6055949    0.2040285 
C     0.8630572   -4.3160547    2.3256292 
C     0.6213312   -3.0619195    2.9077290 
C     0.9188442   -2.7552854    4.3886426 
C    -0.3741202   -2.2300246    5.0657112 
C     1.3952154   -4.0028845    5.1608220 
C     2.0262637   -1.6756430    4.4708400 
C     0.0609556   -2.0569892    2.0882362 
C    -0.2659342   -2.3314939    0.7572211 
C    -2.7537277   -2.1547117   -0.4287623 
C    -3.4516453   -2.3867027    0.7751501 
C    -4.4859518   -3.3270983    0.8346630 
C    -5.2109948   -3.6722357    2.1496003 
C    -6.7348953   -3.4414665    1.9899511 
C    -4.7077637   -2.8164013    3.3314882 
C    -4.9421421   -5.1643986    2.4795560 
C    -4.8321270   -3.9996459   -0.3605904 
C    -4.1645178   -3.7822384   -1.5758479 
C    -3.1020171   -2.8517895   -1.5894879 
C    -4.4980986   -4.5553557   -2.8668611 
C    -5.7497446   -5.4430701   -2.7080734 
C    -3.2904416   -5.4622181   -3.2231848 
C    -4.7526991   -3.5547897   -4.0226148 
C    -0.4426541   -0.9164540   -1.8598747 
C    -1.2618749   -0.5404661   -2.9488913 
C    -0.7008194   -0.2281170   -4.1905928 
C     0.6868535   -0.3023987   -4.3726383 
C     0.9680881   -0.9352150   -2.0075619 
C     1.4991254   -0.6679031   -3.2952559 
C     1.9352477   -1.1319160   -0.8796760 
C     2.8121076   -2.2455500   -0.8243870 
O     2.8295322   -3.3116401   -1.6873070 
C     2.5308437   -3.2367755   -3.0847525 
C     3.2707788   -2.1322340   -3.8340622 
O     2.8604419   -0.7959672   -3.4671303 
C     3.7218617   -2.3945586    0.2415015 
C     3.8083029   -1.4292902    1.2383075 
C     2.9812434   -0.2992125    1.1905181 
C     2.0509599   -0.1473074    0.1497065 
C     1.2820754    2.0997207   -1.4752722 
C     2.6028166    2.1240102   -1.9618396 
C     2.8918214    2.7000768   -3.2084460 
C     4.3160059    2.7229777   -3.7938568 
C     4.7696553    4.1945717   -3.9687314 
C     5.3225680    1.9950002   -2.8781315 
C     4.3063325    2.0061256   -5.1691919 
C     1.8184033    3.2515886   -3.9372744 
C     0.4822289    3.2116741   -3.4952330 
C     0.2277016    2.6155694   -2.2459251 
C    -0.6324154    3.8342606   -4.3599543 
C    -0.5036396    3.3614111   -5.8299810 
C    -0.4907006    5.3774744   -4.3040406 
C    -2.0377656    3.4442935   -3.8559288 
C     1.7141675    2.4321122    1.4304278 
C     1.3506557    2.2140752    2.7741388 
C     1.9635604    2.9414508    3.8092039 
C     1.6023449    2.7375534    5.2942022 
C     1.3187105    4.1062335    5.9645155 
C     0.3503499    1.8516296    5.4682412 
C     2.8015454    2.0562017    6.0034167 
C     2.9508317    3.8812913    3.4485266 
C     3.3056535    4.1509053    2.1133745 
C     2.6619454    3.4128597    1.1025854 
C     4.4104349    5.1759094    1.7892979 
C     4.1869726    6.4898523    2.5779988 
C     4.4514150    5.5171743    0.2834308 
C     5.7718894    4.5555665    2.2004592 
H     2.6113908   -7.2749830    0.0743807 
H     2.8978230   -5.5240049   -0.1806315 
H     2.7757132   -6.1855723    1.4783538 
H     0.3067143   -8.0909768    0.8762844 
H     0.4614722   -7.0643922    2.3246675 
H    -0.9734205   -6.9032011    1.2724589 
H     0.5898724   -7.1821521   -1.4095851 
H     0.8812426   -5.4499658   -1.7112491 
H    -0.7226444   -6.0065065   -1.1365406 
H    -0.3191204   -3.7948793   -0.8326624 
H     1.3012102   -5.1061637    2.9400510 
H    -1.1791680   -2.9838951    5.0089448 
H    -0.1845789   -2.0056662    6.1304935 
H    -0.7423126   -1.3046844    4.5898797 
H     1.5766095   -3.7387362    6.2170566 
H     2.3399821   -4.4015941    4.7517213 
H     0.6394685   -4.8076825    5.1404368 
H     1.7504321   -0.7645919    3.9134087 
H     2.2101395   -1.3935955    5.5229241 
H     2.9696986   -2.0536660    4.0425221 
H    -0.1392224   -1.0562763    2.4886834 
H    -3.1428538   -1.8426589    1.6729204 
H    -7.2630211   -3.7239609    2.9177613 
H    -7.1573297   -4.0430609    1.1670731 
H    -6.9536538   -2.3791987    1.7835699 
H    -3.6314805   -2.9744141    3.5232528 
H    -5.2549808   -3.0919536    4.2492924 
H    -4.8746728   -1.7379044    3.1568389 
H    -5.4357766   -5.4422501    3.4279901 
H    -3.8584554   -5.3507545    2.5830817 
H    -5.3285601   -5.8310812    1.6894977 
H    -5.6430630   -4.7311609   -0.3266723 
H    -2.5283635   -2.7046130   -2.5079994 
H    -5.9644974   -5.9563556   -3.6611253 
H    -5.6068437   -6.2215211   -1.9382372 
H    -6.6390560   -4.8459348   -2.4393056 
H    -3.0907350   -6.1839048   -2.4117548 
H    -3.4958203   -6.0294933   -4.1485727 
H    -2.3722047   -4.8703668   -3.3848736 
H    -5.6019223   -2.8919157   -3.7850958 
H    -4.9866386   -4.1007487   -4.9537022 
H    -3.8721224   -2.9185960   -4.2196552 
H    -2.3454868   -0.4760158   -2.8127648 
H    -1.3493471    0.0649682   -5.0221527 
H     1.1538284   -0.0775945   -5.3355954 
H     1.4395773   -3.1715010   -3.2478945 
H     2.8700378   -4.2060100   -3.4859121 
H     4.3513718   -2.1741580   -3.6255170 
H     3.1079533   -2.2871104   -4.9204094 
H     4.3584948   -3.2833610    0.2443126 
H     4.5329662   -1.5434514    2.0504685 
H     3.0701913    0.4678114    1.9627352 
H     3.3941129    1.6585779   -1.3701642 
H     4.1002663    4.7491160   -4.6493367 
H     5.7888013    4.2326959   -4.3929837 
H     4.7790707    4.7205411   -2.9977448 
H     6.3247372    2.0132818   -3.3399441 
H     5.0338713    0.9402323   -2.7269340 
H     5.4044840    2.4818850   -1.8896964 
H     3.6444207    2.5147853   -5.8916663 
H     5.3237736    1.9947056   -5.5990882 
H     3.9594050    0.9653773   -5.0519118 
H     2.0336442    3.7152728   -4.9052336 
H    -0.7920823    2.5184059   -1.8628813 
H    -1.3232010    3.7842100   -6.4372084 
H     0.4461819    3.6846514   -6.2877523 
H    -0.5555536    2.2610584   -5.8959254 
H     0.4977096    5.7005386   -4.6738876 
H    -1.2655599    5.8606534   -4.9257932 
H    -0.6016653    5.7430827   -3.2683218 
H    -2.1654961    2.3483262   -3.8391360 
H    -2.8083427    3.8699756   -4.5209528 
H    -2.2352677    3.8324661   -2.8411272 
H     0.5784830    1.4706289    2.9967933 
H     0.4784866    4.6252746    5.4704550 
H     1.0519028    3.9590768    7.0258160 
H     2.1961746    4.7737153    5.9329608 
H    -0.5277278    2.2842485    4.9546229 
H     0.1015921    1.7641411    6.5396885 
H     0.5085850    0.8306689    5.0839474 
H     3.7108765    2.6784581    5.9373131 
H     2.5760807    1.8942182    7.0727921 
H     3.0240400    1.0781072    5.5433523 
H     3.4541400    4.4386563    4.2445459 
H     2.8995119    3.5951731    0.0538381 
H     4.2053665    6.3285911    3.6693160 
H     3.2183907    6.9467421    2.3149106 
H     4.9861821    7.2130135    2.3386626 
H     3.4799513    5.9070595   -0.0687539 
H     5.2180056    6.2890147    0.0979898 
H     4.7140792    4.6388489   -0.3318402 
H     5.9577183    3.6182186    1.6468842 
H     6.5965674    5.2575536    1.9818428 
H     5.7959948    4.3242240    3.2798460 
