200
Energy =
C     3.4422263    0.2418619    1.4494728 
C     3.4315445    1.5513644    0.8751187 
C     2.5183130    2.5378912    1.3074876 
H     4.0090734    1.7417042   -0.0384873 
Pd    1.4300677    0.6571796    0.6089884 
P    -0.4190206    1.5274489   -0.5079764 
P     0.4625463   -1.4499691    0.8565622 
H     3.1964202    0.1488531    2.5156615 
H     2.0404127    2.3912070    2.2897879 
C     5.6559825   -3.0748548   -0.1843599 
C     5.2360041   -3.0830893    1.1533313 
C     4.5223507   -1.9990338    1.6793598 
C     4.2113336   -0.8797717    0.8753757 
C     4.6381074   -0.8868289   -0.4746443 
C     5.3557645   -1.9670720   -0.9952916 
H     6.2149569   -3.9224292   -0.5939746 
H     5.4671508   -3.9385320    1.7955363 
H     4.1946676   -2.0179736    2.7243545 
H     4.3945336   -0.0428966   -1.1294688 
H     5.6811198   -1.9480230   -2.0407097 
C     2.1147866    6.5139070   -0.2759272 
C     1.0983558    5.9493764    0.5100866 
C     1.2451905    4.6589124    1.0253118 
C     2.4057397    3.8979036    0.7559951 
C     3.4282060    4.4839287   -0.0235519 
C     3.2836437    5.7800960   -0.5302626 
H     2.0030908    7.5262125   -0.6778543 
H     0.1849773    6.5147889    0.7188594 
H     0.4401810    4.2202858    1.6228909 
H     4.3582648    3.9367402   -0.2062662 
H     4.0937841    6.2265331   -1.1157361 
C     3.4070636   -3.6135582   -4.1293653 
C     2.1926017   -2.6507825   -4.0769342 
C     1.3502748   -2.8073996   -5.3672615 
C     2.7047595   -1.1958826   -4.0141407 
C     1.3442977   -3.0063096   -2.8406721 
C     1.2966199   -2.1841721   -1.7008701 
C     0.5996888   -4.2011416   -2.8123691 
C    -0.2072865   -4.5873317   -1.7224139 
C    -1.0078245   -5.9018604   -1.7848240 
C    -0.0187020   -7.0919112   -1.8756690 
C    -1.8991551   -6.0891355   -0.5391220 
C    -1.9187384   -5.8853124   -3.0386728 
C    -0.2514087   -3.7326629   -0.6097594 
C     0.5082702   -2.5484299   -0.5979718 
C     1.2214917   -2.3715338    2.2490577 
C     1.6487169   -3.7046582    2.1286362 
C     2.2325683   -4.3687124    3.2222475 
C     2.6422690   -5.8525909    3.1376791 
C     4.0230685   -6.0828402    3.7996802 
C     2.7173529   -6.3432655    1.6746204 
C     1.5700089   -6.6837587    3.8914160 
C     2.3852043   -3.6526477    4.4290962 
C     1.9868388   -2.3099238    4.5748078 
C     1.4051348   -1.6802793    3.4587555 
C     2.1383505   -1.5261463    5.8931163 
C     0.7230337   -1.2740930    6.4759724 
C     2.9754854   -2.2961586    6.9356423 
C     2.8331347   -0.1680546    5.6167592 
C    -1.3304145   -1.3218103    1.3076347 
C    -1.7554119   -1.5557078    2.6308440 
C    -3.1047736   -1.4197670    2.9800694 
C    -4.0513979   -1.0550882    2.0179636 
C    -2.2788824   -0.9573566    0.3174083 
C    -3.6395825   -0.8450673    0.6934885 
C    -1.9572480   -0.7735797   -1.1312484 
C    -2.5165865   -1.7103346   -2.0358039 
O    -3.2414898   -2.7340032   -1.4781771 
C    -4.5190077   -3.0676493   -2.0549115 
C    -5.5274667   -1.9191066   -1.9599557 
C    -5.6683312   -1.3154204   -0.5600583 
O    -4.5281743   -0.4714665   -0.2808676 
C    -2.2946715   -1.6092270   -3.4170963 
C    -1.5346149   -0.5450735   -3.9137989 
C    -0.9903541    0.4070416   -3.0441389 
C    -1.1945689    0.3001090   -1.6531741 
C    -1.7704278    2.1128043    0.5693595 
C    -1.4996354    2.2763293    1.9343109 
C    -2.4922811    2.7398892    2.8197680 
C    -2.1480707    2.9203789    4.3113060 
C    -3.3620358    3.3922884    5.1370684 
C    -1.0192664    3.9758342    4.4417623 
C    -1.6536303    1.5702465    4.8896465 
C    -3.7588144    3.0193703    2.2794813 
C    -4.0699292    2.8426222    0.9106586 
C    -3.0560137    2.3815672    0.0590719 
C    -5.4933711    3.1444832    0.4054813 
C    -6.5018487    2.2623884    1.1854417 
C    -5.6465865    2.8406539   -1.0997774 
C    -5.8100026    4.6428898    0.6443069 
C     0.0509302    2.8950017   -1.6326071 
C     1.2872969    2.7665323   -2.2978237 
C     1.6642992    3.6801589   -3.2926602 
C     2.9545596    3.4949286   -4.1156988 
C     3.6653623    4.8502712   -4.3457910 
C     2.5566223    2.8828069   -5.4852856 
C     3.9497472    2.5417079   -3.4168935 
C     0.7774845    4.7442885   -3.5739620 
C    -0.4452009    4.9184661   -2.9021412 
C    -0.7985190    3.9693357   -1.9210558 
C    -1.4168339    6.0745744   -3.2131319 
C    -0.8743562    7.0154863   -4.3086818 
C    -2.7645795    5.4788738   -3.6982029 
C    -1.6553677    6.9067207   -1.9272656 
H     4.0499926   -3.3784578   -4.9968963 
H     3.0786435   -4.6635177   -4.2220988 
H     4.0120020   -3.5275885   -3.2103347 
H     1.9537499   -2.5280830   -6.2489401 
H     1.0087588   -3.8457175   -5.5167445 
H     0.4603117   -2.1560127   -5.3336733 
H     3.2644319   -0.9533169   -4.9340121 
H     3.3863096   -1.0408716   -3.1612787 
H     1.8683011   -0.4801437   -3.9246741 
H     1.8542106   -1.2447451   -1.6567091 
H     0.6402392   -4.8593577   -3.6863306 
H    -0.5712570   -8.0470825   -1.9277452 
H     0.6210404   -7.0211133   -2.7724747 
H     0.6404764   -7.1214409   -0.9903428 
H    -1.2989982   -6.1608427    0.3856667 
H    -2.6110257   -5.2527493   -0.4280024 
H    -2.4773118   -7.0247614   -0.6318709 
H    -2.5206557   -6.8101193   -3.0874651 
H    -2.6047392   -5.0227219   -3.0006025 
H    -1.3337803   -5.8169491   -3.9719069 
H    -0.8887733   -3.9630175    0.2469313 
H     1.5306915   -4.2163693    1.1725687 
H     4.0172567   -5.8356841    4.8747096 
H     4.8046499   -5.4735743    3.3137929 
H     4.3107360   -7.1447832    3.7089414 
H     1.7318816   -6.3127094    1.1778300 
H     3.4213317   -5.7353957    1.0791002 
H     3.0636384   -7.3908049    1.6515792 
H     1.5027894   -6.3799777    4.9508112 
H     1.8217590   -7.7590254    3.8571811 
H     0.5748182   -6.5452915    3.4331020 
H     2.8338168   -4.1638063    5.2834630 
H     1.0869170   -0.6330591    3.5258651 
H     0.0939113   -0.7031010    5.7715009 
H     0.7895601   -0.6983985    7.4166329 
H     0.2135389   -2.2296789    6.6906652 
H     3.9887794   -2.5198891    6.5578928 
H     3.0823091   -1.6868588    7.8494938 
H     2.4948428   -3.2460863    7.2275807 
H     3.8257049   -0.3185337    5.1562363 
H     2.9728706    0.3876688    6.5605176 
H     2.2348002    0.4730494    4.9449372 
H    -1.0351437   -1.8604918    3.3935032 
H    -3.4175319   -1.5998294    4.0137663 
H    -5.1054570   -0.9290204    2.2824996 
H    -4.4059292   -3.3999104   -3.1045722 
H    -4.8525923   -3.9367693   -1.4647225 
H    -5.2497240   -1.1082139   -2.6575490 
H    -6.5111979   -2.3036132   -2.2890909 
H    -6.5636864   -0.6719753   -0.5100334 
H    -5.7569629   -2.1002996    0.2138818 
H    -2.7105663   -2.3593203   -4.0952987 
H    -1.3683955   -0.4518769   -4.9918283 
H    -0.4154438    1.2425718   -3.4509770 
H    -0.5020834    2.0147588    2.3053498 
H    -3.0730884    3.4977921    6.1969398 
H    -3.7333218    4.3738279    4.7938175 
H    -4.1940538    2.6678893    5.0870425 
H    -1.3272977    4.9404794    4.0021224 
H    -0.7711196    4.1431935    5.5049564 
H    -0.0958940    3.6484703    3.9316265 
H    -0.7666929    1.1963873    4.3488577 
H    -1.3769211    1.6866262    5.9525479 
H    -2.4383987    0.7989434    4.8147502 
H    -4.5480748    3.3779283    2.9447936 
H    -3.2578790    2.1914767   -0.9972676 
H    -6.2608209    1.1956436    1.0419436 
H    -6.4842979    2.4758715    2.2680047 
H    -7.5296411    2.4439671    0.8238547 
H    -6.6833805    3.0476066   -1.4166713 
H    -5.4224641    1.7826334   -1.3183265 
H    -4.9805820    3.4729752   -1.7135543 
H    -5.0974274    5.2847884    0.0962509 
H    -5.7530785    4.9073433    1.7144815 
H    -6.8298023    4.8796060    0.2918713 
H     1.9370035    1.9243840   -2.0368495 
H     3.0475627    5.5496540   -4.9338336 
H     4.6041023    4.6927822   -4.9050622 
H     3.9101259    5.3338734   -3.3851098 
H     3.4507903    2.7346996   -6.1174729 
H     2.0641406    1.9037422   -5.3473308 
H     1.8575134    3.5439321   -6.0265227 
H     4.2125635    2.9103679   -2.4102037 
H     4.8786569    2.4726707   -4.0084495 
H     3.5469046    1.5194433   -3.3205617 
H     1.0581314    5.4594599   -4.3497503 
H    -1.7438415    4.0680576   -1.3803005 
H    -0.7198563    6.4848681   -5.2646707 
H    -1.5985967    7.8276353   -4.4922834 
H     0.0814953    7.4810102   -4.0096474 
H    -3.4772411    6.2887700   -3.9356989 
H    -3.2273991    4.8380382   -2.9273248 
H    -2.6193917    4.8677533   -4.6061450 
H    -2.3747684    7.7203931   -2.1283930 
H    -0.7123453    7.3587473   -1.5754457 
H    -2.0645790    6.2886180   -1.1087844 
