197
Energy =
C    -1.7331605    2.7482340    1.7549425 
C    -2.9015808    1.9645345    1.4996098 
C    -3.0628896    0.6820007    2.0691695 
H    -3.5960586    2.2763491    0.7088639 
Pd   -1.1350415    0.8042596    0.8633281 
P    -1.0523872   -1.2775392   -0.1797444 
P     1.1320686    1.1916469    0.5111441 
H    -1.2715368    2.6617902    2.7474198 
H    -2.4395609    0.4325993    2.9437032 
C    -0.7712329    6.3823784   -0.3499664 
C    -1.6213502    5.4343254   -0.9446610 
C    -1.9376830    4.2505287   -0.2717597 
C    -1.4159865    3.9870244    1.0173834 
C    -0.5574194    4.9458039    1.5994074 
C    -0.2435522    6.1315828    0.9248080 
H    -0.5246038    7.3089439   -0.8784840 
H    -2.0384195    5.6200218   -1.9400502 
H    -2.5876421    3.5148588   -0.7588495 
H    -0.1325053    4.7553306    2.5898795 
H     0.4139797    6.8645932    1.4029935 
C    -6.3853478   -1.9727201    1.4492247 
C    -5.1669478   -2.4580573    1.9495547 
C    -4.0954095   -1.5846591    2.1562850 
C    -4.2126479   -0.2099749    1.8468405 
C    -5.4466965    0.2665215    1.3503528 
C    -6.5229473   -0.6068312    1.1599090 
H    -7.2283816   -2.6534799    1.2945162 
H    -5.0505365   -3.5228300    2.1769398 
H    -3.1434197   -1.9719052    2.5355774 
H    -5.5786074    1.3339708    1.1473240 
H    -7.4795648   -0.2177784    0.7966878 
C    -1.0199823   -4.1374898    5.2591986 
C     0.1409048   -3.3482090    4.6003357 
C     1.4964804   -3.8923999    5.1155362 
C     0.0339533   -1.8623991    5.0099205 
C     0.0413149   -3.5244186    3.0729460 
C    -0.3898810   -2.4830858    2.2332785 
C     0.3604891   -4.7551137    2.4668555 
C     0.2995151   -4.9710777    1.0736734 
C     0.7150732   -6.3325776    0.4851746 
C     2.1741645   -6.6428813    0.9086186 
C    -0.2386548   -7.4282151    1.0256579 
C     0.6526779   -6.3349281   -1.0569957 
C    -0.1319186   -3.9065791    0.2657108 
C    -0.4922720   -2.6772811    0.8467598 
C    -2.6712156   -1.7180683   -0.9133900 
C    -3.4160288   -0.6635047   -1.4713487 
C    -4.6066911   -0.9169211   -2.1733196 
C    -5.3745759    0.2087221   -2.8939898 
C    -6.9021953    0.0399494   -2.7135012 
C    -5.0200659    0.1308717   -4.4028485 
C    -4.9780969    1.6048489   -2.3632431 
C    -5.0359645   -2.2562863   -2.2583039 
C    -4.3318273   -3.3301543   -1.6756108 
C    -3.1327044   -3.0408492   -1.0017866 
C    -4.8708957   -4.7685490   -1.8069667 
C    -4.9522679   -5.1417007   -3.3098265 
C    -6.2834092   -4.8501958   -1.1742004 
C    -3.9611425   -5.7945967   -1.0974358 
C     0.0887537   -1.2842015   -1.6363544 
C    -0.4449380   -1.2196060   -2.9379859 
C     0.3985097   -1.1959350   -4.0549038 
C     1.7834942   -1.2703294   -3.8860211 
C     1.4961227   -1.3342594   -1.4455589 
C     2.3197511   -1.3703814   -2.5939751 
C     2.1476971   -1.4014389   -0.1024889 
C     2.9065865   -2.5523583    0.2133505 
O     3.0268433   -3.5603296   -0.7248889 
C     4.2989410   -3.5936954   -1.4069156 
C     4.2227443   -2.7890399   -2.7024071 
O     3.6897890   -1.4735792   -2.4406071 
C     3.5165361   -2.7109453    1.4660169 
C     3.4363580   -1.6809789    2.4067322 
C     2.7455018   -0.5032556    2.0977613 
C     2.0935057   -0.3538634    0.8583868 
C     1.6590900    1.7050021   -1.1561099 
C     0.6923321    2.1328726   -2.0776246 
C     1.0747440    2.5373191   -3.3698165 
C     0.0467323    3.0224439   -4.4103981 
C     0.1634976    4.5647851   -4.5235558 
C     0.3285531    2.3788415   -5.7903809 
C    -1.3955103    2.6548570   -3.9966545 
C     2.4483331    2.5159035   -3.6787138 
C     3.4407729    2.0808328   -2.7747460 
C     3.0226871    1.6642237   -1.5020342 
C     4.9210033    2.0649252   -3.1998902 
C     5.3684101    3.5153228   -3.5144028 
C     5.0789773    1.1750716   -4.4595283 
C     5.8305557    1.4940986   -2.0913584 
C     1.8082544    2.4431458    1.6712720 
C     1.4114183    2.3793424    3.0249786 
C     1.8657803    3.3281833    3.9513819 
C     1.4377123    3.3062713    5.4316170 
C     2.6976612    3.1964326    6.3280308 
C     0.6788386    4.6189733    5.7568066 
C     0.5087493    2.1153350    5.7494109 
C     2.7302987    4.3462545    3.4816527 
C     3.1423073    4.4366433    2.1422327 
C     2.6560938    3.4683403    1.2378631 
C     4.1368781    5.5009012    1.6375033 
C     5.4824422    4.7880242    1.3346464 
C     4.3828364    6.6078500    2.6836619 
C     3.6116289    6.1618920    0.3379715 
H    -0.9797996   -4.0392903    6.3589582 
H    -1.9976560   -3.7575791    4.9128121 
H    -0.9640767   -5.2111569    5.0084670 
H     1.5759557   -3.7402516    6.2063668 
H     1.6086545   -4.9729693    4.9242598 
H     2.3377626   -3.3699862    4.6285993 
H     0.1644044   -1.7643479    6.1013442 
H    -0.9524654   -1.4325897    4.7595309 
H     0.8127992   -1.2543409    4.5159642 
H    -0.6263904   -1.4955206    2.6390205 
H     0.6915580   -5.5802190    3.1057032 
H     2.2814319   -6.6993412    2.0057457 
H     2.4932082   -7.6142617    0.4905779 
H     2.8510441   -5.8570672    0.5320238 
H     0.0440220   -8.4158860    0.6197031 
H    -1.2821907   -7.2185509    0.7303068 
H    -0.2027195   -7.4932085    2.1271329 
H     1.3182365   -5.5645035   -1.4833938 
H     0.9762477   -7.3185196   -1.4390536 
H    -0.3735019   -6.1583274   -1.4259182 
H    -0.1587838   -4.0094054   -0.8212797 
H    -3.0380956    0.3589698   -1.3649410 
H    -7.4343130    0.8724508   -3.2060179 
H    -7.1731035    0.0378783   -1.6442359 
H    -7.2731940   -0.8965949   -3.1629415 
H    -3.9347365    0.2687016   -4.5567819 
H    -5.5522495    0.9182126   -4.9666578 
H    -5.3034080   -0.8483460   -4.8265432 
H    -5.5839231    2.3798746   -2.8630304 
H    -3.9184148    1.8392293   -2.5625194 
H    -5.1551828    1.6815929   -1.2762495 
H    -5.9598592   -2.4746540   -2.8024727 
H    -2.5537815   -3.8402869   -0.5370465 
H    -5.3303968   -6.1728887   -3.4273969 
H    -5.6320708   -4.4693319   -3.8610602 
H    -3.9560764   -5.0821228   -3.7824059 
H    -6.9878906   -4.1477536   -1.6519853 
H    -6.6934342   -5.8695028   -1.2869814 
H    -6.2419693   -4.6110072   -0.0980742 
H    -2.9459031   -5.8120017   -1.5319518 
H    -4.3873294   -6.8065629   -1.2068744 
H    -3.8709583   -5.5841963   -0.0167040 
H    -1.5282165   -1.1986033   -3.0817011 
H    -0.0305051   -1.1342402   -5.0600351 
H     2.4640335   -1.2602164   -4.7423512 
H     4.5238877   -4.6520915   -1.6247753 
H     5.0840235   -3.1901713   -0.7420564 
H     5.2314797   -2.6529410   -3.1292112 
H     3.5862415   -3.3036912   -3.4449421 
H     4.0563079   -3.6381915    1.6789336 
H     3.9269249   -1.7849723    3.3797475 
H     2.7290870    0.3125257    2.8244807 
H    -0.3577940    2.1297248   -1.7734785 
H    -0.0250163    5.0422826   -3.5463995 
H    -0.5684492    4.9562665   -5.2531718 
H     1.1729480    4.8618203   -4.8575158 
H    -0.4311671    2.7060051   -6.5219458 
H     0.2954521    1.2778663   -5.7235820 
H     1.3152755    2.6673847   -6.1903591 
H    -1.6978872    3.1681911   -3.0685658 
H    -2.1028199    2.9590707   -4.7874429 
H    -1.5031588    1.5665212   -3.8416146 
H     2.7628978    2.8415895   -4.6753261 
H     3.7442733    1.2842342   -0.7752171 
H     6.4293987    3.5310600   -3.8214810 
H     4.7734010    3.9578442   -4.3321322 
H     5.2565517    4.1604565   -2.6245007 
H     4.4792120    1.5506615   -5.3066172 
H     6.1357566    1.1533451   -4.7804699 
H     4.7575718    0.1437334   -4.2348692 
H     5.7937045    2.1089286   -1.1742152 
H     6.8776965    1.4835778   -2.4400692 
H     5.5434620    0.4598262   -1.8342910 
H     0.7324027    1.5807857    3.3389624 
H     3.3816749    4.0492225    6.1780802 
H     2.4079129    3.1812872    7.3937389 
H     3.2556258    2.2693824    6.1076024 
H     1.3076492    5.5083048    5.5803186 
H     0.3689457    4.6294306    6.8168529 
H    -0.2280664    4.7138288    5.1332219 
H     1.0000343    1.1462658    5.5524711 
H     0.2290390    2.1367349    6.8165248 
H    -0.4271845    2.1561543    5.1626694 
H     3.0871203    5.0916997    4.1966599 
H     2.9406557    3.5207175    0.1846410 
H     5.3561286    4.0095729    0.5612916 
H     5.8854212    4.3053145    2.2420226 
H     6.2281334    5.5161341    0.9682066 
H     4.8431516    6.2104227    3.6051477 
H     5.0738105    7.3627205    2.2709010 
H     3.4442207    7.1221518    2.9571280 
H     2.6397029    6.6546131    0.5068107 
H     4.3305136    6.9240162   -0.0106618 
H     3.4820964    5.4307809   -0.4786190 
