200
Energy =
C     0.8258788   -2.9488639    2.1540118 
C     0.7182859   -2.0086368    3.2260122 
C    -0.5028248   -1.3636801    3.5208078 
H     1.6314122   -1.6392406    3.7100807 
Pd    0.1175441   -1.0035488    1.3532858 
P    -0.4735710    1.2239368    1.0178393 
P     0.2150772   -1.4665318   -0.9298325 
H    -0.0456455   -3.5812651    1.9386266 
H    -1.4260612   -1.8217423    3.1297196 
C     4.5727777   -4.4833899    0.6789973 
C     3.3730892   -5.1673043    0.4363239 
C     2.1597953   -4.6660035    0.9239191 
C     2.1201889   -3.4648112    1.6664070 
C     3.3385626   -2.7823809    1.9000204 
C     4.5488155   -3.2882244    1.4178900 
H     5.5207523   -4.8772641    0.2984251 
H     3.3798598   -6.1006774   -0.1349633 
H     1.2276736   -5.2056288    0.7244569 
H     3.3382879   -1.8372854    2.4543084 
H     5.4797222   -2.7467575    1.6160670 
C    -1.1550465    1.6016428    6.5636321 
C    -2.0820519    1.4251413    5.5248878 
C    -1.8623370    0.4521311    4.5465923 
C    -0.7043547   -0.3581099    4.5764354 
C     0.2129097   -0.1811200    5.6364918 
C    -0.0139032    0.7869420    6.6208223 
H    -1.3269498    2.3614114    7.3330817 
H    -2.9778733    2.0514639    5.4733058 
H    -2.5824237    0.3330203    3.7311399 
H     1.0924414   -0.8281372    5.7126504 
H     0.6968292    0.8972376    7.4461281 
C    -2.2775570    5.1330216    4.7480837 
C    -0.8879981    5.5468436    4.1996624 
C    -0.1614549    6.3683878    5.2844021 
C    -1.0751924    6.4414178    2.9462771 
C    -0.0997954    4.2845259    3.7968038 
C    -0.6340126    3.4261439    2.8140831 
C     1.1517593    3.9557094    4.3461253 
C     1.8754190    2.8006647    3.9719703 
C     3.2791399    2.5324254    4.5497078 
C     3.3197881    2.8264874    6.0685564 
C     3.7203204    1.0679869    4.3308043 
C     4.2771606    3.4680498    3.8165920 
C     1.3032998    1.9603419    3.0061484 
C     0.0672178    2.2841496    2.4106186 
C    -2.2500437    1.5254127    0.7311430 
C    -2.7138508    2.7535993    0.2194177 
C    -4.0864770    2.9628920    0.0253235 
C    -4.6446012    4.2833939   -0.5378690 
C    -5.5780082    4.9308640    0.5165080 
C    -5.4416110    3.9811390   -1.8328410 
C    -3.5203787    5.2827316   -0.8830506 
C    -4.9720122    1.9092004    0.3530264 
C    -4.5363992    0.6668553    0.8438981 
C    -3.1500968    0.4923205    1.0234476 
C    -5.4931160   -0.4916205    1.1878033 
C    -5.1211020   -1.7297747    0.3330408 
C    -5.3398152   -0.8434048    2.6903677 
C    -6.9675990   -0.1314765    0.9147759 
C     0.3936686    1.9735648   -0.4329902 
C     1.4692139    2.8620085   -0.2292460 
C     2.1604258    3.3976592   -1.3220227 
C     1.7897893    3.0657866   -2.6293312 
C     0.0058895    1.6230148   -1.7495805 
C     0.7085334    2.1970166   -2.8382897 
C    -1.1505292    0.7358834   -2.0835211 
C    -2.2403726    1.3291735   -2.7661085 
O    -2.1895312    2.6841152   -2.9660187 
C    -2.3048395    3.2061708   -4.3092121 
C    -0.9765572    3.8430496   -4.7264451 
C     0.1184432    2.8380539   -5.0951389 
O     0.2975349    1.8192565   -4.0922520 
C    -3.3482342    0.5706377   -3.1726806 
C    -3.3608732   -0.8067334   -2.9330131 
C    -2.2874752   -1.4217375   -2.2767141 
C    -1.1824915   -0.6620438   -1.8430662 
C     1.7213446   -0.9369899   -1.8103603 
C     1.7616524   -0.9678852   -3.2164393 
C     2.9239221   -0.5731631   -3.8974451 
C     3.0283766   -0.6000627   -5.4341113 
C     4.1249198   -1.6144146   -5.8482692 
C     3.4073560    0.8131537   -5.9450998 
C     1.6944008   -1.0126952   -6.0912042 
C     4.0174317   -0.1325111   -3.1238144 
C     3.9931339   -0.0598754   -1.7176295 
C     2.8222670   -0.4856572   -1.0653644 
C     5.2272284    0.4463999   -0.9462458 
C     4.9016954    0.6990914    0.5414990 
C     5.7333050    1.7757868   -1.5593312 
C     6.3407760   -0.6281371   -1.0458004 
C     0.0052514   -3.2596210   -1.2545935 
C     0.8606424   -3.9773943   -2.1075972 
C     0.6664606   -5.3539333   -2.3200356 
C     1.5450385   -6.1482761   -3.3068440 
C     2.8359678   -5.3811292   -3.6698669 
C     0.7171655   -6.3774065   -4.5994730 
C     1.9456094   -7.5195460   -2.7091976 
C    -0.3981437   -5.9863422   -1.6424585 
C    -1.2585142   -5.2995798   -0.7645730 
C    -1.0341214   -3.9225952   -0.5799528 
C    -2.4280515   -5.9819841   -0.0284437 
C    -3.7579059   -5.4336238   -0.6088806 
C    -2.4071992   -7.5154417   -0.1973450 
C    -2.3512828   -5.6568473    1.4856110 
H    -2.8651646    6.0303767    5.0117223 
H    -2.1696454    4.5125523    5.6541019 
H    -2.8564789    4.5561580    4.0055187 
H    -0.7645870    7.2552099    5.5447797 
H    -0.0127757    5.7819855    6.2083767 
H     0.8234375    6.7262344    4.9362572 
H    -1.6323655    7.3579325    3.2104209 
H    -1.6409504    5.9195000    2.1548166 
H    -0.0981720    6.7386147    2.5267969 
H    -1.6025596    3.6515434    2.3593038 
H     1.5886505    4.6199362    5.0944098 
H     4.3216109    2.5945826    6.4702978 
H     3.1149741    3.8868468    6.2927487 
H     2.5786109    2.2127578    6.6076347 
H     3.0015651    0.3643153    4.7854529 
H     3.8215186    0.8208437    3.2605190 
H     4.7051132    0.9006308    4.7995706 
H     4.2792848    3.2632433    2.7312064 
H     4.0073668    4.5283053    3.9640736 
H     5.3026195    3.3165260    4.1996121 
H     1.8182567    1.0499405    2.6812455 
H    -1.9877329    3.5217813   -0.0550040 
H    -5.0237390    5.1501195    1.4465686 
H    -6.4252017    4.2712577    0.7725357 
H    -5.9928462    5.8788950    0.1300072 
H    -4.7870548    3.4919920   -2.5738140 
H    -6.3010510    3.3157806   -1.6417827 
H    -5.8321591    4.9173252   -2.2698977 
H    -2.9414653    5.5711641    0.0124009 
H    -3.9589111    6.2039236   -1.3039162 
H    -2.8242491    4.8591373   -1.6268803 
H    -6.0424276    2.0702387    0.2023900 
H    -2.7516720   -0.4659214    1.3758332 
H    -5.2282718   -1.5116051   -0.7427384 
H    -5.7772762   -2.5817950    0.5850140 
H    -4.0769252   -2.0439658    0.5062119 
H    -5.5578124    0.0325373    3.3258987 
H    -6.0366815   -1.6542335    2.9674185 
H    -4.3172997   -1.1883756    2.9253704 
H    -7.2982626    0.7269784    1.5254298 
H    -7.6134750   -0.9895892    1.1685932 
H    -7.1368811    0.1114866   -0.1490557 
H     1.7600113    3.1469635    0.7848522 
H     2.9941810    4.0861729   -1.1510252 
H     2.3371479    3.4750259   -3.4829671 
H    -2.6050069    2.4001650   -5.0042038 
H    -3.1038803    3.9673565   -4.2902147 
H    -1.1476140    4.4952870   -5.6035472 
H    -0.6344455    4.4954776   -3.9027390 
H     1.0713057    3.3606736   -5.3044033 
H    -0.1546213    2.2691553   -5.9988546 
H    -4.1884684    1.0649292   -3.6692593 
H    -4.2142550   -1.4103993   -3.2587277 
H    -2.3079916   -2.5022717   -2.1173324 
H     0.8714707   -1.2815427   -3.7663078 
H     4.2228740   -1.6458805   -6.9482283 
H     5.1089620   -1.3429088   -5.4281348 
H     3.8731403   -2.6294767   -5.4943168 
H     4.3881561    1.1410207   -5.5601516 
H     3.4610745    0.8200979   -7.0483151 
H     2.6511616    1.5498325   -5.6266317 
H     0.8799769   -0.3230307   -5.8088374 
H     1.7983807   -0.9930685   -7.1898972 
H     1.3977748   -2.0376722   -5.8049029 
H     4.9282284    0.1803759   -3.6445000 
H     2.7393699   -0.4579559    0.0246902 
H     4.0748844    1.4229503    0.6536034 
H     4.6194232   -0.2322184    1.0600876 
H     5.7871899    1.1100067    1.0565433 
H     6.6017247    2.1493559   -0.9884554 
H     4.9419363    2.5440552   -1.5319967 
H     6.0551277    1.6535727   -2.6074881 
H     6.6336913   -0.8009791   -2.0961157 
H     5.9932471   -1.5887469   -0.6283238 
H     7.2394499   -0.3068393   -0.4886403 
H     1.6844886   -3.4556643   -2.5964151 
H     2.6201107   -4.4407340   -4.2063837 
H     3.4620328   -6.0013846   -4.3339542 
H     3.4277039   -5.1355354   -2.7703415 
H     1.3083142   -6.9457834   -5.3399165 
H    -0.2049906   -6.9459425   -4.3862185 
H     0.4262337   -5.4135311   -5.0533474 
H     2.5018810   -7.3952886   -1.7640850 
H     2.5928527   -8.0638692   -3.4187375 
H     1.0697808   -8.1592865   -2.5075526 
H    -0.5567809   -7.0543216   -1.8059945 
H    -1.6764700   -3.3503571    0.0999371 
H    -3.8372964   -5.6624529   -1.6859961 
H    -4.6216425   -5.8905640   -0.0933729 
H    -3.8296682   -4.3389508   -0.4867934 
H    -3.2433766   -7.9629595    0.3669021 
H    -1.4685984   -7.9536994    0.1854527 
H    -2.5256345   -7.8134208   -1.2537162 
H    -2.4527626   -4.5742674    1.6812565 
H    -1.3915545   -5.9959871    1.9142738 
H    -3.1683108   -6.1654581    2.0267947 
