200
Energy =
C     3.4406402    0.2232017    1.4172833 
C     3.4410042    1.5236716    0.8241875 
C     2.5396961    2.5290430    1.2366355 
H     4.0194070    1.6938220   -0.0930984 
Pd    1.4278557    0.6452755    0.5777891 
P    -0.4389283    1.5010001   -0.5244283 
P     0.4601169   -1.4572235    0.8572121 
H     3.1967213    0.1470479    2.4851740 
H     2.0535855    2.4096172    2.2186526 
C     5.6441407   -3.1208957   -0.1747203 
C     5.3331858   -2.0294180   -1.0035293 
C     4.6177785   -0.9414691   -0.4962310 
C     4.2035140   -0.9100526    0.8572647 
C     4.5244824   -2.0133534    1.6789013 
C     5.2366151   -3.1050573    1.1666871 
H     6.2017057   -3.9745513   -0.5734932 
H     5.6487808   -2.0289164   -2.0520926 
H     4.3659760   -0.1101431   -1.1639741 
H     4.2063669   -2.0137816    2.7269791 
H     5.4761896   -3.9475856    1.8226990 
C     2.2699827    6.4765283   -0.4453527 
C     1.1952721    5.9328261    0.2752880 
C     1.2953861    4.6533350    0.8287820 
C     2.4663964    3.8807776    0.6565852 
C     3.5470193    4.4454397   -0.0578301 
C     3.4498452    5.7325338   -0.5982516 
H     2.1926147    7.4793783   -0.8772771 
H     0.2713667    6.5061398    0.4028520 
H     0.4463284    4.2303165    1.3754435 
H     4.4840352    3.8887872   -0.1594038 
H     4.3043836    6.1625789   -1.1306956 
C     2.6596182   -1.2035593   -4.0295332 
C     2.1478325   -2.6590215   -4.0887425 
C     3.3622016   -3.6208674   -4.1568150 
C     1.2913482   -2.8142913   -5.3698931 
C     1.3132209   -3.0177296   -2.8439706 
C     1.2724249   -2.1947390   -1.7047229 
C     0.5744244   -4.2160017   -2.8069319 
C    -0.2201687   -4.6044285   -1.7086174 
C    -1.0148039   -5.9229738   -1.7613861 
C    -1.8910224   -6.1141411   -0.5055691 
C    -1.9398813   -5.9114646   -3.0048788 
C    -0.0208845   -7.1081498   -1.8627498 
C    -0.2580675   -3.7483492   -0.5967091 
C     0.4962326   -2.5607311   -0.5937229 
C     1.2295163   -2.3716046    2.2486976 
C     1.6513243   -3.7068471    2.1336561 
C     2.2382099   -4.3669490    3.2280594 
C     2.6405974   -5.8531921    3.1495413 
C     1.5645315   -6.6754681    3.9076083 
C     4.0205338   -6.0883036    3.8115174 
C     2.7122031   -6.3502265    1.6884113 
C     2.3995300   -3.6447377    4.4300828 
C     2.0074171   -2.2995524    4.5699486 
C     1.4225282   -1.6740109    3.4532618 
C     2.1678531   -1.5088945    5.8830746 
C     2.8634904   -0.1535582    5.5956656 
C     0.7561382   -1.2511072    6.4721991 
C     3.0094207   -2.2748947    6.9249891 
C    -1.3285676   -1.3273752    1.3243273 
C    -1.7383647   -1.5427703    2.6556129 
C    -3.0835654   -1.4032704    3.0186165 
C    -4.0418778   -1.0554014    2.0618752 
C    -2.2886221   -0.9778627    0.3400738 
C    -3.6453881   -0.8636254    0.7300919 
C    -1.9834565   -0.8050747   -1.1134355 
C    -2.5533233   -1.7472036   -2.0057191 
O    -3.2684182   -2.7691492   -1.4327280 
C    -4.5516623   -3.1116406   -1.9913625 
C    -5.5635496   -1.9664278   -1.8917083 
C    -5.6873165   -1.3521373   -0.4948105 
O    -4.5453779   -0.5034099   -0.2387352 
C    -2.3505810   -1.6521759   -3.3904028 
C    -1.5981585   -0.5898243   -3.9025811 
C    -1.0420356    0.3662615   -3.0448803 
C    -1.2281415    0.2660551   -1.6509938 
C    -1.7734984    2.0889663    0.5719729 
C    -3.0699072    2.3460726    0.0837844 
C    -4.0665753    2.8214077    0.9475060 
C    -5.4993784    3.1160472    0.4649624 
C    -5.8147345    4.6160689    0.6956722 
C    -6.4919501    2.2385424    1.2699626 
C    -5.6784663    2.7992746   -1.0348359 
C    -3.7280604    3.0216399    2.3067912 
C    -2.4493854    2.7558776    2.8247003 
C    -1.4738585    2.2802430    1.9268381 
C    -2.0708427    2.9669086    4.3034862 
C    -1.5343097    1.6364338    4.8902125 
C    -3.2722211    3.4280167    5.1533295 
C    -0.9606794    4.0470586    4.3848610 
C     0.0021962    2.8740762   -1.6525894 
C    -0.8574136    3.9555937   -1.9034980 
C    -0.5117490    4.9297445   -2.8555786 
C    -1.4278832    6.1284971   -3.1724259 
C    -0.6515581    7.4506230   -2.9450740 
C    -2.6875856    6.1453668   -2.2798635 
C    -1.8762710    6.0389489   -4.6542630 
C     0.7076390    4.7725032   -3.5463725 
C     1.5961075    3.7052001   -3.3087266 
C     1.2288598    2.7645006   -2.3308923 
C     2.8754995    3.5333717   -4.1512468 
C     3.5571146    4.8974023   -4.4134758 
C     3.8989976    2.6078335   -3.4547568 
C     2.4642021    2.8942400   -5.5044557 
H     3.2087147   -0.9594868   -4.9553336 
H     3.3506692   -1.0485783   -3.1841772 
H     1.8235860   -0.4885506   -3.9301795 
H     3.9958729   -3.3827404   -5.0302849 
H     3.9766222   -3.5376814   -3.2439123 
H     3.0334956   -4.6707376   -4.2494243 
H     1.8852777   -2.5349990   -6.2580476 
H     0.4023335   -2.1623519   -5.3261235 
H     0.9474048   -3.8523123   -5.5158620 
H     1.8256449   -1.2524102   -1.6670854 
H     0.6094568   -4.8752384   -3.6803924 
H    -2.4649353   -7.0530595   -0.5910826 
H    -1.2800524   -6.1817383    0.4124611 
H    -2.6063496   -5.2817252   -0.3870538 
H    -2.6298045   -5.0523849   -2.9591645 
H    -1.3657747   -5.8402137   -3.9446102 
H    -2.5375521   -6.8393637   -3.0467434 
H    -0.5692783   -8.0660647   -1.9078707 
H     0.6081948   -7.0349316   -2.7668767 
H     0.6485386   -7.1337292   -0.9850188 
H    -0.8867212   -3.9802093    0.2659816 
H     1.5267251   -4.2235688    1.1811388 
H     0.5696563   -6.5334917    3.4496770 
H     1.5000367   -6.3668542    4.9657767 
H     1.8104426   -7.7522158    3.8775816 
H     4.8052789   -5.4861640    3.3219392 
H     4.0171606   -5.8360459    4.8853683 
H     4.3017964   -7.1523528    3.7256259 
H     1.7263642   -6.3178655    1.1924838 
H     3.0542719   -7.3992313    1.6693154 
H     3.4179921   -5.7474733    1.0898220 
H     2.8500974   -4.1528636    5.2852121 
H     1.1084214   -0.6253668    3.5161887 
H     3.8530422   -0.3081468    5.1300337 
H     3.0098031    0.4066241    6.5357771 
H     2.2623467    0.4853577    4.9242929 
H     0.2464566   -2.2046229    6.6955032 
H     0.8287112   -0.6697852    7.4089401 
H     0.1240624   -0.6834235    5.7676969 
H     2.5284725   -3.2220888    7.2251718 
H     3.1230251   -1.6607049    7.8347393 
H     4.0199284   -2.5030341    6.5424221 
H    -1.0093241   -1.8358692    3.4143947 
H    -3.3838344   -1.5675357    4.0586307 
H    -5.0930442   -0.9270081    2.3364954 
H    -4.4502611   -3.4508178   -3.0400034 
H    -4.8743928   -3.9779286   -1.3910682 
H    -5.2987429   -1.1599482   -2.5993716 
H    -6.5500914   -2.3574843   -2.2042802 
H    -6.5837505   -0.7107169   -0.4374630 
H    -5.7628255   -2.1310100    0.2865429 
H    -2.7754059   -2.4054315   -4.0595089 
H    -1.4475129   -0.5013808   -4.9832860 
H    -0.4729191    1.2004343   -3.4627879 
H    -3.2924001    2.1392206   -0.9651857 
H    -6.8407080    4.8475249    0.3579474 
H    -5.7412358    4.8903201    1.7623660 
H    -5.1123642    5.2538349    0.1300913 
H    -6.4520140    2.4576958    2.3508322 
H    -7.5268977    2.4184528    0.9284361 
H    -6.2543706    1.1708767    1.1270973 
H    -5.4579391    1.7394720   -1.2482517 
H    -6.7207351    3.0033926   -1.3352482 
H    -5.0229810    3.4266631   -1.6647769 
H    -4.5042575    3.3898534    2.9822117 
H    -0.4667330    2.0323059    2.2807469 
H    -2.3021579    0.8460162    4.8408616 
H    -0.6484868    1.2757129    4.3385966 
H    -1.2402513    1.7738130    5.9458922 
H    -2.9588515    3.5540332    6.2039923 
H    -4.0915364    2.6877993    5.1337880 
H    -3.6704045    4.3976439    4.8064531 
H    -1.3057527    5.0005645    3.9484987 
H    -0.0501010    3.7357275    3.8425007 
H    -0.6783190    4.2295521    5.4370491 
H    -1.7917816    4.0350126   -1.3456738 
H    -0.3378486    7.5434789   -1.8914477 
H    -1.2921764    8.3155825   -3.1924497 
H     0.2522918    7.5098073   -3.5754483 
H    -3.3062538    7.0249204   -2.5274741 
H    -3.3110739    5.2466574   -2.4327617 
H    -2.4291535    6.2074333   -1.2075616 
H    -1.0140650    6.0692746   -5.3427082 
H    -2.5388772    6.8863265   -4.9056158 
H    -2.4280123    5.1006429   -4.8398301 
H     0.9751854    5.5152070   -4.3038273 
H     1.8854759    1.9202430   -2.0953248 
H     3.7983723    5.4052548   -3.4644783 
H     4.4944360    4.7472955   -4.9770530 
H     2.9214819    5.5716286   -5.0119757 
H     4.8228144    2.5539800   -4.0558726 
H     3.5201490    1.5772107   -3.3464816 
H     4.1623721    2.9909877   -2.4538209 
H     3.3493682    2.7530159   -6.1507666 
H     1.7431446    3.5351066   -6.0413963 
H     1.9922016    1.9084746   -5.3439042 
