197
Energy =
C    -1.6347664    2.6297549    2.0317709 
C    -2.7911989    1.8006986    1.8942696 
C    -2.8301951    0.5011270    2.4469708 
H    -3.5868534    2.0984540    1.1992720 
Pd   -1.0655074    0.7339723    1.0234670 
P    -1.0096276   -1.3260827   -0.0604825 
P     1.1168470    1.2409458    0.3896332 
H    -1.0537327    2.5388932    2.9591717 
H    -2.0993280    0.2655542    3.2379298 
C    -1.0796067    6.3550521   -0.0602373 
C    -1.9556937    5.3861849   -0.5789044 
C    -2.1413621    4.1729284    0.0903344 
C    -1.4592204    3.8997262    1.3000654 
C    -0.5773007    4.8803344    1.8059709 
C    -0.3942406    6.0954528    1.1353398 
H    -0.9350632    7.3045221   -0.5858377 
H    -2.4960350    5.5788052   -1.5117197 
H    -2.8147389    3.4220896   -0.3383619 
H    -0.0299691    4.6836198    2.7331785 
H     0.2855078    6.8441824    1.5545295 
C    -6.0665440   -2.3113532    2.1453619 
C    -4.7833239   -2.7340390    2.5253120 
C    -3.7418174   -1.8083148    2.6278295 
C    -3.9555526   -0.4412108    2.3384561 
C    -5.2554623   -0.0262711    1.9719008 
C    -6.2998446   -0.9529911    1.8813332 
H    -6.8849393   -3.0346410    2.0683902 
H    -4.5918253   -3.7901407    2.7383465 
H    -2.7409020   -2.1489780    2.9104416 
H    -5.4607280    1.0334068    1.7906246 
H    -7.3057934   -0.6117014    1.6169154 
C    -0.6930324   -3.0283287    5.1716285 
C     0.6755065   -3.3858781    4.5359788 
C     1.2228754   -4.6486075    5.2322914 
C     1.6700239   -2.2204539    4.7717718 
C     0.4912646   -3.5902151    3.0191001 
C    -0.0602449   -2.5492534    2.2451701 
C     0.8531049   -4.7709962    2.3492057 
C     0.6965269   -4.9463987    0.9535896 
C     1.1501952   -6.2605825    0.2904450 
C     0.3519965   -7.4398739    0.9025250 
C     0.9189509   -6.2450608   -1.2354088 
C     2.6667932   -6.4572482    0.5473242 
C     0.1334672   -3.8938622    0.2186200 
C    -0.2548270   -2.7038874    0.8667729 
C    -2.6812188   -1.8511861   -0.5950592 
C    -3.5484075   -0.8314581   -1.0376251 
C    -4.7823513   -1.1450444   -1.6245648 
C    -5.6885389   -0.0578611   -2.2351368 
C    -7.1750778   -0.3189775   -1.8929474 
C    -5.4988533   -0.0973586   -3.7751152 
C    -5.3166234    1.3530458   -1.7271646 
C    -5.1365064   -2.5106041   -1.7131678 
C    -4.3110787   -3.5465643   -1.2421406 
C    -3.0658987   -3.1939436   -0.6819025 
C    -4.6963345   -5.0363605   -1.3385255 
C    -3.6352248   -5.7757328   -2.1950245 
C    -6.0801255   -5.2413003   -1.9886674 
C    -4.7278540   -5.6505360    0.0844436 
C    -0.0760483   -1.2488041   -1.6574360 
C    -0.7890300   -1.1901867   -2.8712374 
C    -0.1141490   -1.0928226   -4.0934293 
C     1.2826627   -1.0859443   -4.1211767 
C     1.3447404   -1.2197560   -1.6664699 
C     1.9994561   -1.1810083   -2.9197597 
C     2.1852927   -1.2727524   -0.4328471 
C     3.0603959   -2.3711469   -0.2693078 
O     3.0988717   -3.3542284   -1.2403945 
C     4.2575459   -3.3030181   -2.0997816 
C     3.9481042   -2.4739302   -3.3443454 
O     3.3810327   -1.2026499   -2.9627846 
C     3.8713537   -2.5040672    0.8671477 
C     3.8661115   -1.5002549    1.8382301 
C     3.0502528   -0.3738845    1.6763165 
C     2.2060047   -0.2501151    0.5562874 
C     1.3918331    1.8190235   -1.3176507 
C     2.6987757    1.8589910   -1.8388634 
C     2.9249350    2.3202075   -3.1444701 
C     4.3355335    2.3921474   -3.7586347 
C     4.3694858    1.5468635   -5.0577873 
C     4.6671992    3.8719946   -4.0794529 
C     5.4089200    1.8389392   -2.7975597 
C     1.8018815    2.7176711   -3.9004489 
C     0.4812692    2.6588705   -3.4156135 
C     0.2919769    2.2097251   -2.0956225 
C    -0.6957435    3.1066282   -4.3037369 
C    -2.0523817    2.6650082   -3.7123505 
C    -0.5678293    2.4939030   -5.7202892 
C    -0.6663539    4.6540260   -4.4035891 
C     1.8775984    2.4975152    1.4896658 
C     1.6641700    2.3765367    2.8801035 
C     2.2005098    3.3144964    3.7729321 
C     1.9767897    3.2260172    5.2950328 
C     1.2391996    4.5032845    5.7736801 
C     1.1269872    1.9982251    5.6861573 
C     3.3493754    3.1179089    6.0075491 
C     2.9576811    4.3811500    3.2310740 
C     3.1862960    4.5292223    1.8533770 
C     2.6218223    3.5695596    0.9858730 
C     4.0678370    5.6469657    1.2617132 
C     4.4156193    6.7269718    2.3071372 
C     3.3505425    6.3301171    0.0700414 
C     5.3833275    4.9963266    0.7550764 
H    -0.5879480   -2.9117173    6.2647899 
H    -1.0932936   -2.0788603    4.7745126 
H    -1.4380001   -3.8199084    4.9784439 
H     1.3309262   -4.4595847    6.3142338 
H     0.5423076   -5.5092739    5.1086008 
H     2.2167329   -4.9313566    4.8430702 
H     1.7821852   -2.0243699    5.8531840 
H     1.3261972   -1.2886103    4.2894033 
H     2.6622118   -2.4651495    4.3567323 
H    -0.3284080   -1.5937402    2.7100670 
H     1.2889393   -5.5911267    2.9250891 
H    -0.7315417   -7.3095014    0.7312980 
H     0.6627257   -8.3928098    0.4383636 
H     0.5170597   -7.5259932    1.9905274 
H     1.2689593   -7.1962522   -1.6723982 
H     1.4756692   -5.4214613   -1.7146594 
H    -0.1519505   -6.1402092   -1.4856073 
H     2.8976512   -6.5078873    1.6255091 
H     3.0120609   -7.3992812    0.0851263 
H     3.2351548   -5.6204150    0.1069763 
H     0.0196906   -3.9695490   -0.8651539 
H    -3.2250963    0.2101982   -0.9381125 
H    -7.8054155    0.4842382   -2.3129625 
H    -7.3277015   -0.3454811   -0.8009990 
H    -7.5367375   -1.2726117   -2.3128774 
H    -4.4466976    0.1052216   -4.0441465 
H    -6.1334619    0.6644823   -4.2629293 
H    -5.7718747   -1.0860060   -4.1834163 
H    -6.0157176    2.0967957   -2.1462293 
H    -4.2995845    1.6498362   -2.0350957 
H    -5.3789343    1.4087202   -0.6264290 
H    -6.0940572   -2.7676000   -2.1706180 
H    -2.3913141   -3.9720120   -0.3138576 
H    -3.8950407   -6.8455295   -2.2849166 
H    -3.5816343   -5.3459119   -3.2105618 
H    -2.6297231   -5.7106796   -1.7438404 
H    -6.1085823   -4.8532340   -3.0220975 
H    -6.3141147   -6.3189479   -2.0315479 
H    -6.8802570   -4.7483099   -1.4086277 
H    -3.7537736   -5.5511944    0.5949001 
H    -4.9729234   -6.7261247    0.0295675 
H    -5.4921876   -5.1537590    0.7063521 
H    -1.8809359   -1.2302111   -2.8642096 
H    -0.6836695   -1.0362403   -5.0264413 
H     1.8346750   -1.0154146   -5.0628974 
H     4.5020806   -4.3422437   -2.3794189 
H     5.1099206   -2.8712759   -1.5444101 
H     3.2422948   -3.0092026   -4.0051464 
H     4.8740956   -2.2626786   -3.9064872 
H     4.5047596   -3.3904609    0.9661402 
H     4.5091523   -1.5845842    2.7199930 
H     3.0861871    0.4223670    2.4235581 
H     3.5281430    1.5049348   -1.2221679 
H     4.1274490    0.4948969   -4.8292256 
H     5.3756222    1.5869567   -5.5119044 
H     3.6487778    1.9155438   -5.8080721 
H     5.6759938    3.9514962   -4.5223969 
H     4.6432318    4.4858715   -3.1612233 
H     3.9481707    4.3048654   -4.7966389 
H     5.2055166    0.7855576   -2.5381984 
H     6.4000891    1.8893103   -3.2805115 
H     5.4656474    2.4273475   -1.8643594 
H     1.9659825    3.0779549   -4.9209758 
H    -0.7080990    2.1418770   -1.6592688 
H    -2.8709193    2.9444461   -4.3980063 
H    -2.0884108    1.5708615   -3.5649299 
H    -2.2532718    3.1515866   -2.7431682 
H    -0.5420429    1.3919377   -5.6695894 
H    -1.4307833    2.7936149   -6.3405829 
H     0.3441307    2.8335146   -6.2397691 
H    -0.7462678    5.1104084   -3.4018145 
H    -1.5053278    5.0182657   -5.0239019 
H     0.2753578    5.0035896   -4.8616792 
H     1.0650883    1.5391328    3.2505396 
H     0.2547618    4.5969639    5.2812134 
H     1.0744001    4.4637137    6.8650659 
H     1.8182805    5.4162993    5.5533835 
H     0.1210558    2.0333486    5.2291246 
H     0.9903630    1.9747077    6.7808454 
H     1.6113967    1.0509669    5.3901349 
H     3.9874642    3.9935091    5.7987410 
H     3.2084053    3.0570145    7.1013196 
H     3.8918507    2.2144738    5.6773801 
H     3.3789795    5.1178291    3.9196561 
H     2.7644239    3.6644269   -0.0929268 
H     5.0087243    6.3165685    3.1430810 
H     3.5059652    7.1962636    2.7227035 
H     5.0194702    7.5207608    1.8349562 
H     2.3953957    6.7814543    0.3862739 
H     3.9906826    7.1289849   -0.3438578 
H     3.1348973    5.6212125   -0.7478064 
H     5.1799572    4.2406874   -0.0244312 
H     6.0487198    5.7642093    0.3213321 
H     5.9201233    4.4983677    1.5812682 
