197
Energy =
C    -0.6254118   -3.2584014    1.6469781 
C    -0.5206599   -3.7570608    0.3072855 
C     0.7036354   -3.6518017   -0.3918364 
H    -1.4253471   -4.0598465   -0.2345253 
Pd   -0.0465844   -1.6115108    0.2929389 
P     0.3288155   -0.2981735   -1.5867747 
P    -0.0981169    0.2206888    1.7270293 
H     0.2652958   -3.3366135    2.2837542 
H     1.6058521   -3.5007662    0.2229126 
C    -4.3117397   -2.7941357    3.8263471 
C    -4.3390626   -2.9021114    2.4255953 
C    -3.1498194   -3.0554875    1.7063585 
C    -1.9016630   -3.1133314    2.3722699 
C    -1.8890711   -2.9986184    3.7810838 
C    -3.0814657   -2.8445013    4.4979070 
H    -5.2437921   -2.6734617    4.3879355 
H    -5.2944735   -2.8635450    1.8917794 
H    -3.1910917   -3.1163424    0.6133836 
H    -0.9322116   -3.0256876    4.3134202 
H    -3.0484941   -2.7685880    5.5891873 
C     1.6449227   -4.7422799   -4.4366555 
C     2.6248626   -4.2018742   -3.5898614 
C     2.2954608   -3.8548470   -2.2768562 
C     0.9821339   -4.0354171   -1.7811586 
C     0.0052597   -4.5717871   -2.6505566 
C     0.3353354   -4.9196528   -3.9634592 
H     1.8999945   -5.0305158   -5.4614274 
H     3.6473086   -4.0538561   -3.9524899 
H     3.0625232   -3.4341016   -1.6187237 
H    -1.0180448   -4.7264022   -2.2976485 
H    -0.4327726   -5.3336742   -4.6236819 
C    -1.2184522    5.1337351    3.6046142 
C    -2.6301911    4.7533682    3.1103482 
C    -3.0776754    5.8107107    2.0683698 
C    -3.6000693    4.7563073    4.3194460 
C    -2.6517602    3.3591312    2.4563738 
C    -1.5117884    2.5443533    2.3910651 
C    -3.8427658    2.8629714    1.8848956 
C    -3.9337202    1.6105564    1.2482244 
C    -5.2694745    1.1334928    0.6462796 
C    -6.1909398    0.6861647    1.8110411 
C    -5.0617172   -0.0556045   -0.3173772 
C    -5.9494301    2.2778330   -0.1445787 
C    -2.7763151    0.8104884    1.2164198 
C    -1.5819734    1.2756776    1.7853871 
C     0.2514289   -0.2750626    3.4586984 
C     1.2694262   -1.2214553    3.6819034 
C     1.5744520   -1.6661158    4.9793413 
C     2.7149471   -2.6842524    5.1805740 
C     2.8265037   -3.1528709    6.6461987 
C     2.4663584   -3.9273532    4.2878509 
C     4.0524556   -2.0151242    4.7686854 
C     0.8203195   -1.1358812    6.0486347 
C    -0.2050546   -0.1891110    5.8575449 
C    -0.4854173    0.2261430    4.5410380 
C    -0.9889969    0.4455346    7.0240449 
C    -0.6437494   -0.2026630    8.3806008 
C    -2.5131339    0.3009426    6.7849456 
C    -0.6242842    1.9533762    7.0854026 
C     1.2800878    1.3718787    1.2660811 
C     2.4840283    1.3495320    1.9962777 
C     3.5582318    2.1704463    1.6320737 
C     3.4307101    3.0523197    0.5558488 
C     1.1411817    2.2498619    0.1549271 
C     2.2194674    3.1126587   -0.1485844 
C    -0.0994360    2.3554060   -0.6719237 
C    -0.8085406    3.5780105   -0.6660354 
O    -0.3254275    4.6366781    0.0802382 
C     0.3421505    5.6553092   -0.6947148 
C     1.8427979    5.3791333   -0.7524150 
O     2.0861974    4.0219774   -1.1812270 
C    -2.0081886    3.7342467   -1.3758528 
C    -2.4853825    2.6844359   -2.1649815 
C    -1.7660444    1.4859432   -2.2449761 
C    -0.5819142    1.3088567   -1.5036205 
C     2.0564506    0.1651507   -1.9348332 
C     2.3694821    1.1623737   -2.8757927 
C     3.7081100    1.5150000   -3.1119492 
C     4.1020900    2.6104856   -4.1204397 
C     4.9616022    1.9775082   -5.2440359 
C     4.9148777    3.7066499   -3.3838874 
C     2.8635565    3.2765137   -4.7565764 
C     4.7048012    0.8409702   -2.3744307 
C     4.4182480   -0.1362579   -1.4012695 
C     3.0680421   -0.4648995   -1.1939582 
C     5.5519827   -0.8294897   -0.6209458 
C     5.0092282   -1.6191016    0.5916946 
C     6.5636071    0.2191720   -0.0957053 
C     6.2741009   -1.8108674   -1.5802738 
C    -0.3649010   -1.1108614   -3.0749406 
C    -1.5983070   -1.7805437   -2.9217379 
C    -2.2491470   -2.3427677   -4.0291067 
C    -3.6231572   -3.0326207   -3.9131790 
C    -4.6787167   -2.1307301   -4.6052652 
C    -4.0451304   -3.2417311   -2.4430749 
C    -3.5916521   -4.4183159   -4.6049335 
C    -1.6184601   -2.2264215   -5.2890378 
C    -0.3787409   -1.5884058   -5.4681361 
C     0.2452829   -1.0336851   -4.3313215 
C     0.2729952   -1.4012305   -6.8526251 
C     1.7779949   -1.7638927   -6.7997839 
C    -0.3995469   -2.2736218   -7.9333090 
C     0.1249708    0.0926756   -7.2484691 
H    -1.2410785    6.1439260    4.0487216 
H    -0.8553485    4.4384972    4.3825198 
H    -0.4938716    5.1401176    2.7720615 
H    -3.0668382    6.8188364    2.5198718 
H    -2.3902344    5.8035265    1.2052863 
H    -4.1009350    5.6196025    1.7011656 
H    -3.6026219    5.7477842    4.8065197 
H    -3.2933895    4.0042416    5.0684650 
H    -4.6356235    4.5279364    4.0126355 
H    -0.5548387    2.8923758    2.7865447 
H    -4.7380443    3.4908655    1.9286867 
H    -7.1615182    0.3284375    1.4219227 
H    -5.7216733   -0.1304873    2.3870685 
H    -6.3862153    1.5232655    2.5040185 
H    -6.0243959   -0.3388983   -0.7772228 
H    -4.6729064   -0.9437043    0.2077818 
H    -4.3574391    0.2045463   -1.1276552 
H    -6.2169389    3.1302643    0.5023522 
H    -6.8827026    1.9130032   -0.6083904 
H    -5.2861497    2.6501187   -0.9445698 
H    -2.7822943   -0.1742840    0.7412776 
H     1.8270281   -1.6150841    2.8234784 
H     3.0575697   -2.3157153    7.3276872 
H     3.6422575   -3.8902515    6.7392282 
H     1.8953573   -3.6360361    6.9909839 
H     2.4721811   -3.6691506    3.2137866 
H     1.4954361   -4.3974343    4.5240126 
H     3.2601001   -4.6779179    4.4485194 
H     4.8919389   -2.7217158    4.8968782 
H     4.0364422   -1.6976410    3.7110450 
H     4.2520572   -1.1246149    5.3899386 
H     1.0429852   -1.4703365    7.0622210 
H    -1.2860208    0.9467897    4.3567598 
H    -0.8707915   -1.2835724    8.3843541 
H    -1.2411366    0.2686370    9.1798062 
H     0.4207912   -0.0692243    8.6415925 
H    -2.8330670    0.7763495    5.8416610 
H    -2.8066804   -0.7614529    6.7450989 
H    -3.0705728    0.7810837    7.6084869 
H     0.4593776    2.0897925    7.2463903 
H    -0.8984743    2.4720682    6.1497771 
H    -1.1628648    2.4434696    7.9161290 
H     2.5819981    0.6973265    2.8676571 
H     4.4908959    2.1306983    2.2038095 
H     4.2516419    3.7100286    0.2555960 
H    -0.0885405    5.6855444   -1.7120579 
H     0.1502267    6.6212845   -0.1963335 
H     2.3078102    5.5418737    0.2368837 
H     2.3264139    6.0445098   -1.4884521 
H    -2.5453744    4.6844054   -1.3044444 
H    -3.4127604    2.8021260   -2.7345097 
H    -2.1249858    0.6857426   -2.8971542 
H     1.5580348    1.6806250   -3.3915302 
H     4.3933632    1.1938246   -5.7764322 
H     5.8818457    1.5177857   -4.8434712 
H     5.2601921    2.7470261   -5.9781496 
H     4.3090013    4.1436866   -2.5717954 
H     5.8449146    3.3042868   -2.9462630 
H     5.1966473    4.5098006   -4.0879890 
H     2.2581702    2.5527238   -5.3314957 
H     3.1859473    4.0668061   -5.4563160 
H     2.2215228    3.7402019   -3.9874945 
H     5.7514890    1.1064850   -2.5541514 
H     2.7758777   -1.1947792   -0.4345571 
H     5.8480207   -2.0503101    1.1645184 
H     4.4313276   -0.9653800    1.2687314 
H     4.3600433   -2.4585496    0.2842147 
H     7.0525423    0.7700657   -0.9167065 
H     7.3585651   -0.2792810    0.4864038 
H     6.0618511    0.9533369    0.5577140 
H     7.0969989   -2.3301928   -1.0570508 
H     5.5718165   -2.5726262   -1.9636812 
H     6.7007524   -1.2771444   -2.4473378 
H    -2.0401136   -1.8425284   -1.9213078 
H    -4.7265792   -1.1416334   -4.1159738 
H    -5.6798359   -2.5945567   -4.5484965 
H    -4.4351161   -1.9727220   -5.6701397 
H    -4.1531208   -2.2867955   -1.9023315 
H    -5.0202563   -3.7563775   -2.4041792 
H    -3.3161537   -3.8693910   -1.8990486 
H    -3.3379357   -4.3428653   -5.6756720 
H    -4.5821047   -4.9005307   -4.5313408 
H    -2.8529422   -5.0830533   -4.1240075 
H    -2.1216686   -2.6525054   -6.1602931 
H     1.2083683   -0.5268753   -4.4301306 
H     2.2332757   -1.6183928   -7.7950825 
H     1.9200659   -2.8159991   -6.5030762 
H     2.3344293   -1.1325314   -6.0855509 
H    -1.4563323   -1.9957760   -8.0907018 
H     0.1212715   -2.1397041   -8.8968986 
H    -0.3566291   -3.3456579   -7.6704048 
H     0.5747978    0.2734927   -8.2412584 
H     0.6301793    0.7501250   -6.5186246 
H    -0.9388486    0.3849949   -7.2908082 
