206
Energy =
C     0.4870466    1.4206184   -3.5067677 
C    -0.7619727    0.7667885   -3.7556518 
C    -1.9266763    1.1808185   -3.0687740 
H    -0.7833818   -0.1571934   -4.3470433 
Pd   -0.2862702    0.5522765   -1.6217512 
P    -1.5077507   -0.6823696   -0.0810993 
P     1.4926442    0.9733485   -0.1704688 
H     0.4562683    2.4924645   -3.2702204 
H    -1.9012700    2.1905658   -2.6284590 
C     4.2850124    0.0348091   -4.9888318 
C     3.2327219   -0.8783727   -4.8036805 
C     1.9957550   -0.4392000   -4.3232328 
C     1.7792849    0.9258254   -4.0165374 
C     2.8499351    1.8298985   -4.1926815 
C     4.0855767    1.3887723   -4.6823870 
H     5.2526603   -0.3089882   -5.3685272 
H     3.3799749   -1.9388020   -5.0346317 
H     1.1919065   -1.1664432   -4.1661373 
H     2.7067117    2.8866447   -3.9420249 
H     4.8969622    2.1088483   -4.8281064 
C    -5.9073517   -0.4154501   -3.2638558 
C    -5.6113310    0.6809166   -2.4393566 
C    -4.3072764    1.1810515   -2.3871695 
C    -3.2708682    0.5967722   -3.1534912 
C    -3.5829977   -0.5170284   -3.9657960 
C    -4.8873114   -1.0165315   -4.0181310 
H    -6.9309291   -0.7987566   -3.3244133 
H    -6.3986790    1.1493502   -1.8397053 
H    -4.0793874    2.0362564   -1.7427931 
H    -2.8047348   -0.9908759   -4.5701420 
H    -5.1120758   -1.8782295   -4.6542546 
C    -2.6487456    4.4891668    0.3106130 
C    -3.6927312    3.9734334    1.3253674 
C    -3.4800327    4.7296610    2.6610788 
C    -5.1129644    4.2697167    0.7791038 
C    -3.5566931    2.4568906    1.5602107 
C    -2.7054117    1.6565233    0.7831184 
C    -4.3125140    1.8155749    2.5624336 
C    -4.2097859    0.4378398    2.8453828 
C    -5.1054855   -0.2004685    3.9260376 
C    -6.5636597   -0.2122927    3.3956220 
C    -4.6807460   -1.6513961    4.2390610 
C    -5.0481524    0.6203014    5.2379496 
C    -3.3140322   -0.3244146    2.0737956 
C    -2.5973278    0.2767490    1.0240458 
C    -2.5188820   -1.9328008   -0.9658544 
C    -1.9156110   -2.5578304   -2.0792895 
C    -2.5685766   -3.5949149   -2.7612004 
C    -1.9258724   -4.3278771   -3.9557456 
C    -2.9385160   -4.4543053   -5.1210841 
C    -1.4976388   -5.7418827   -3.4826056 
C    -0.6799271   -3.5877304   -4.4865519 
C    -3.8424523   -3.9878943   -2.2922406 
C    -4.4782770   -3.3712095   -1.2013707 
C    -3.7971672   -2.3213473   -0.5504285 
C    -5.8325832   -3.8541127   -0.6446365 
C    -6.7764047   -2.6544890   -0.3853990 
C    -6.5421405   -4.8300410   -1.6065305 
C    -5.5577492   -4.5839012    0.6977029 
C    -0.4252332   -1.6930442    1.0156500 
C    -0.3150650   -3.0854355    0.8273003 
C     0.5460428   -3.8297502    1.6400334 
C     1.2866531   -3.2112677    2.6526174 
C     0.3335541   -1.0418516    2.0168076 
C     1.1734489   -1.8235520    2.8528932 
C     0.2466867    0.4223934    2.3098724 
C    -0.3673757    0.7984563    3.5338142 
O    -0.8979525   -0.2252037    4.2620093 
C    -1.1562839   -0.0180573    5.6628816 
C     0.1331434    0.0486463    6.4959581 
C     0.6711052   -1.3141836    6.9678957 
C     1.0973223   -2.3186800    5.8814949 
C     2.2718493   -1.8624672    4.9985321 
O     1.8437270   -1.1418098    3.8261910 
C    -0.4199508    2.1486405    3.9240278 
C     0.1542932    3.1261994    3.1054722 
C     0.7676452    2.7798471    1.8971410 
C     0.8104670    1.4311826    1.4887725 
C     2.4017870    2.4547143   -0.7650104 
C     1.6328529    3.5769548   -1.1243620 
C     2.2345299    4.7357931   -1.6449183 
C     1.3554860    5.9541663   -1.9904203 
C     0.1964030    5.5136465   -2.9213163 
C     2.1539253    7.0659371   -2.7020689 
C     0.7700571    6.5259980   -0.6728633 
C     3.6332460    4.7238584   -1.8138757 
C     4.4303024    3.6053985   -1.4933311 
C     3.7924379    2.4669276   -0.9643299 
C     5.9623576    3.6512211   -1.6630447 
C     6.5575553    2.2335759   -1.8260663 
C     6.3654073    4.4893690   -2.8999288 
C     6.5589281    4.3055477   -0.3882254 
C     2.7397667   -0.3210701    0.1359814 
C     2.7090215   -1.4907876   -0.6445602 
C     3.6876836   -2.4809111   -0.4720767 
C     3.6976560   -3.7833335   -1.2944776 
C     4.9208132   -3.7577392   -2.2477245 
C     3.7997782   -5.0038529   -0.3458245 
C     2.4148759   -3.9328632   -2.1388205 
C     4.7115229   -2.2369523    0.4704429 
C     4.7711407   -1.0745434    1.2601424 
C     3.7427653   -0.1244864    1.0984707 
C     5.9113614   -0.8025368    2.2634621 
C     6.5875756    0.5476342    1.9127170 
C     6.9918102   -1.9036120    2.2339394 
C     5.3265432   -0.7297401    3.6950225 
H    -1.6213122    4.2608832    0.6442632 
H    -2.7931975    4.0490927   -0.6926845 
H    -2.7379803    5.5837494    0.2030856 
H    -2.4816693    4.5098284    3.0763886 
H    -4.2339297    4.4495448    3.4164098 
H    -3.5593744    5.8192866    2.4992052 
H    -5.2416100    5.3529448    0.6042292 
H    -5.2840398    3.7432300   -0.1768270 
H    -5.8928866    3.9445079    1.4893175 
H    -2.0920942    2.0906543   -0.0111548 
H    -5.0086127    2.4180230    3.1549362 
H    -7.2411611   -0.6662784    4.1409195 
H    -6.6354077   -0.7968485    2.4618555 
H    -6.9217643    0.8104929    3.1851104 
H    -4.8093016   -2.3145113    3.3656905 
H    -5.3059892   -2.0562826    5.0532387 
H    -3.6248766   -1.7034886    4.5569633 
H    -4.0185678    0.6655718    5.6305535 
H    -5.4049598    1.6546532    5.0965596 
H    -5.6890402    0.1519030    6.0054060 
H    -3.1585986   -1.3844926    2.2850830 
H    -0.9227127   -2.2191331   -2.3950063 
H    -2.4692399   -4.9743280   -5.9744357 
H    -3.2682080   -3.4589043   -5.4671013 
H    -3.8341285   -5.0308693   -4.8349120 
H    -1.0385761   -6.3057390   -4.3145267 
H    -0.7603058   -5.6712966   -2.6632619 
H    -2.3634418   -6.3189329   -3.1138799 
H     0.1166167   -3.5221460   -3.7277468 
H    -0.9297920   -2.5640268   -4.8184919 
H    -0.2652761   -4.1276738   -5.3546995 
H    -4.3522429   -4.8070204   -2.8043659 
H    -4.2648933   -1.8136113    0.2960702 
H    -7.7317815   -3.0122121    0.0370644 
H    -6.9910026   -2.1127520   -1.3206178 
H    -6.3457998   -1.9333993    0.3300685 
H    -6.7161730   -4.3673569   -2.5943054 
H    -5.9640852   -5.7589351   -1.7538821 
H    -7.5225304   -5.1168695   -1.1889891 
H    -6.5020858   -4.9557023    1.1343929 
H    -4.8821270   -5.4438916    0.5468281 
H    -5.0853654   -3.9052582    1.4298962 
H    -0.9115037   -3.5874979    0.0616985 
H     0.6289349   -4.9119242    1.4953934 
H     1.9420959   -3.8116724    3.2873059 
H    -1.7783716   -0.8797694    5.9549266 
H    -1.7723765    0.8889666    5.7990409 
H     0.8978239    0.5964821    5.9138618 
H    -0.0703447    0.6654613    7.3907075 
H     1.5350879   -1.1323552    7.6357318 
H    -0.1004942   -1.7951090    7.5997057 
H     1.3930352   -3.2576029    6.3845875 
H     0.2451083   -2.5787141    5.2262694 
H     2.9216029   -1.1494876    5.5306328 
H     2.9051619   -2.7178083    4.7009378 
H    -0.8944517    2.4408950    4.8631624 
H     0.1315779    4.1748769    3.4198006 
H     1.2309005    3.5578182    1.2862152 
H     0.5438989    3.5371809   -1.0003644 
H    -0.4275359    6.3835936   -3.1917003 
H     0.5862593    5.0678478   -3.8535953 
H    -0.4649472    4.7740653   -2.4353254 
H     1.4818647    7.9052613   -2.9504214 
H     2.6041777    6.7043282   -3.6433330 
H     2.9593649    7.4659959   -2.0618137 
H     0.1226760    7.3960298   -0.8838650 
H     1.5783824    6.8519077    0.0046731 
H     0.1627750    5.7723683   -0.1421429 
H     4.1209222    5.6124832   -2.2177898 
H     4.3746925    1.5774069   -0.7180802 
H     6.0982267    1.6978292   -2.6741426 
H     7.6439116    2.3052627   -2.0074269 
H     6.4178439    1.6205592   -0.9208666 
H     5.8916007    4.1008499   -3.8185605 
H     7.4601261    4.4515537   -3.0356911 
H     6.0884899    5.5521839   -2.7951427 
H     7.6599292    4.3627665   -0.4627792 
H     6.3028610    3.7167592    0.5101182 
H     6.1677845    5.3287828   -0.2491932 
H     1.9047608   -1.6080648   -1.3755233 
H     5.8680936   -3.6941683   -1.6844568 
H     4.8684014   -2.8868062   -2.9242091 
H     4.9509019   -4.6766651   -2.8606847 
H     2.9505340   -5.0205676    0.3585912 
H     3.7878165   -5.9412729   -0.9298425 
H     4.7325304   -4.9916973    0.2435232 
H     1.5103916   -3.9228645   -1.5047450 
H     2.4352143   -4.8900611   -2.6883468 
H     2.3268660   -3.1241724   -2.8835727 
H     5.4939466   -2.9908304    0.5861671 
H     3.7241791    0.7815287    1.7134321 
H     7.3963452    0.7670535    2.6320763 
H     7.0295407    0.5115897    0.9021326 
H     5.8728210    1.3881029    1.9439228 
H     7.4584460   -1.9914535    1.2369806 
H     6.5803904   -2.8894091    2.5141929 
H     7.7895640   -1.6595154    2.9565974 
H     4.5156435    0.0143067    3.7697788 
H     4.9158811   -1.7100905    3.9879815 
H     6.1163822   -0.4580329    4.4180603 
