197
Energy =
C    -0.3861852   -3.2651251    1.7612753 
C    -0.5641113   -3.7735777    0.4398279 
C     0.4858304   -3.7059856   -0.5050458 
H    -1.5685154   -4.0635125    0.1037440 
Pd   -0.0491100   -1.6342029    0.2755390 
P     0.3086322   -0.2984946   -1.6077314 
P    -0.0778463    0.2089329    1.6927910 
H     0.6249070   -3.3299204    2.1865981 
H     1.5036217   -3.5518109   -0.1112756 
C    -3.5072648   -3.0275187    4.7188200 
C    -2.1772056   -3.2596396    5.0963038 
C    -1.1721108   -3.3272151    4.1252543 
C    -1.4740227   -3.1735997    2.7551786 
C    -2.8192888   -2.9392801    2.3880378 
C    -3.8235243   -2.8688676    3.3588722 
H    -4.2952042   -2.9705965    5.4770887 
H    -1.9166391   -3.3906791    6.1509873 
H    -0.1362835   -3.5022895    4.4278538 
H    -3.0754965   -2.7943725    1.3318970 
H    -4.8593226   -2.6847334    3.0571611 
C     0.3874258   -5.1175674   -4.5619942 
C     1.3865841   -4.2280527   -4.1374193 
C     1.4131514   -3.7818441   -2.8132268 
C     0.4276995   -4.1993821   -1.8896112 
C    -0.5658065   -5.1042981   -2.3261055 
C    -0.5793920   -5.5633850   -3.6476630 
H     0.3678637   -5.4699403   -5.5982252 
H     2.1469840   -3.8771102   -4.8425309 
H     2.1878523   -3.0770467   -2.4902123 
H    -1.3112874   -5.4809154   -1.6185102 
H    -1.3413243   -6.2834577   -3.9629914 
C    -5.6133748   -0.3804516    1.1765408 
C    -5.2205557    0.9222463    0.4354499 
C    -6.4066450    1.9054254    0.5094022 
C    -4.9484428    0.5945917   -1.0540315 
C    -3.9421445    1.4976255    1.0790559 
C    -2.7601259    0.7264156    1.0960491 
C    -3.8932993    2.7713436    1.6693860 
C    -2.7263992    3.3053926    2.2650966 
C    -2.7554088    4.7170167    2.8809689 
C    -3.8229004    4.7611302    4.0039068 
C    -3.1113677    5.7437595    1.7748307 
C    -1.3887846    5.1088498    3.4814202 
C    -1.5700685    2.5150501    2.2589470 
C    -1.5910534    1.2296302    1.6797077 
C     0.2323009   -0.2365823    3.4454623 
C     1.3283303   -1.0673492    3.7327617 
C     1.6667502   -1.3904306    5.0606841 
C     2.9356603   -2.2231187    5.3363015 
C     4.1691456   -1.3749583    4.9264413 
C     3.0692597   -2.6044470    6.8251467 
C     2.9149673   -3.5269281    4.4988681 
C     0.8382056   -0.8897447    6.0820173 
C    -0.2970558   -0.0906791    5.8229507 
C    -0.5874398    0.2315838    4.4865500 
C    -1.1401479    0.4622491    6.9895994 
C    -1.5713638   -0.6840542    7.9376237 
C    -2.4143793    1.1782778    6.4910588 
C    -0.2709353    1.4815778    7.7724975 
C     1.2995241    1.3802199    1.2606471 
C     2.4821250    1.3705965    2.0269145 
C     3.5677010    2.1873101    1.6922077 
C     3.4771535    3.0543964    0.6016744 
C     1.1924275    2.2564130    0.1441550 
C     2.2868980    3.1099837   -0.1365006 
C    -0.0228005    2.3886124   -0.7145948 
C    -0.6737907    3.6434113   -0.7528011 
O    -0.1852474    4.6823073    0.0177203 
C     0.5104665    5.7026393   -0.7282606 
C     2.0030897    5.3795870   -0.7803142 
O     2.1928402    4.0068906   -1.1843565 
C    -1.8197277    3.8553607   -1.5330275 
C    -2.3064420    2.8235430   -2.3377756 
C    -1.6561903    1.5841226   -2.3553873 
C    -0.5232024    1.3542830   -1.5513342 
C     2.0694638    0.0918288   -1.8911135 
C     3.0274663   -0.6149784   -1.1466630 
C     4.3979938   -0.3476360   -1.3006576 
C     5.4710828   -1.1056403   -0.4955390 
C     6.2715150   -2.0115362   -1.4662341 
C     4.8418758   -1.9874389    0.6059676 
C     6.4294934   -0.0967078    0.1852527 
C     4.7630805    0.6426018   -2.2337914 
C     3.8243163    1.3863326   -2.9800216 
C     2.4623159    1.1000838   -2.7894043 
C     4.3044388    2.4809291   -3.9520779 
C     5.1673606    1.8264323   -5.0608677 
C     5.1464473    3.5213860   -3.1694444 
C     3.1225955    3.2209382   -4.6138701 
C    -0.3678502   -1.0384786   -3.1393775 
C    -1.5968529   -1.7119176   -3.0239229 
C    -2.2704519   -2.1776180   -4.1663714 
C    -3.6802659   -2.7944623   -4.0795722 
C    -3.8185459   -4.0018544   -5.0375913 
C    -4.6977041   -1.6957949   -4.4881450 
C    -4.0100480   -3.2725626   -2.6473136 
C    -1.6418588   -1.9846268   -5.4124236 
C    -0.3883549   -1.3551859   -5.5551160 
C     0.2400808   -0.8731956   -4.3940499 
C     0.2340642   -1.1853504   -6.9550528 
C     1.6447739   -0.5614895   -6.8887225 
C     0.3449476   -2.5664511   -7.6495642 
C    -0.6784417   -0.2543992   -7.7952057 
H    -6.5461972   -0.7948589    0.7542354 
H    -4.8276333   -1.1476186    1.0785865 
H    -5.7709473   -0.1911140    2.2525028 
H    -7.2922902    1.4545164    0.0294118 
H    -6.6771351    2.1421332    1.5533827 
H    -6.1866337    2.8509482   -0.0168920 
H    -5.8321463    0.1108398   -1.5069546 
H    -4.0891771   -0.0877074   -1.1727334 
H    -4.7253882    1.5121409   -1.6224772 
H    -2.7353608   -0.2705689    0.6420605 
H    -4.7955839    3.3876543    1.6661519 
H    -3.8544604    5.7664839    4.4603734 
H    -4.8325165    4.5351520    3.6192667 
H    -3.5890661    4.0287842    4.7967829 
H    -3.1526836    6.7625549    2.2001853 
H    -4.0934582    5.5302093    1.3181391 
H    -2.3448183    5.7244734    0.9819541 
H    -1.0889354    4.4240773    4.2951887 
H    -1.4491680    6.1252101    3.9077071 
H    -0.5989594    5.1081377    2.7104040 
H    -0.6356101    2.8907321    2.6819959 
H     1.9360464   -1.4537693    2.9063491 
H     4.1474064   -1.1264761    3.8503961 
H     5.1027222   -1.9311949    5.1250150 
H     4.2008045   -0.4296278    5.4957205 
H     2.2019988   -3.1934961    7.1723476 
H     3.1656112   -1.7134789    7.4696335 
H     3.9742622   -3.2184836    6.9724644 
H     3.8347940   -4.1097449    4.6816706 
H     2.0527647   -4.1613725    4.7695962 
H     2.8666474   -3.3222933    3.4144312 
H     1.0803270   -1.1251423    7.1211510 
H    -1.4521408    0.8509194    4.2449302 
H    -2.2202201   -1.4028314    7.4096478 
H    -2.1369198   -0.2735543    8.7925693 
H    -0.7061963   -1.2347695    8.3449767 
H    -2.1764354    2.0623868    5.8736611 
H    -3.0524127    0.5011852    5.8956899 
H    -3.0045066    1.5281152    7.3555143 
H     0.6357250    1.0059509    8.1854668 
H     0.0479178    2.3094741    7.1149225 
H    -0.8452567    1.9081884    8.6143119 
H     2.5560347    0.7332321    2.9097834 
H     4.4793297    2.1538715    2.2972257 
H     4.3092319    3.7053131    0.3179206 
H     0.0887467    5.7675669   -1.7476714 
H     0.3395730    6.6610221   -0.2087026 
H     2.4731118    5.5418915    0.2065091 
H     2.5113024    6.0133387   -1.5272816 
H    -2.3078688    4.8338934   -1.5042371 
H    -3.1897691    2.9849086   -2.9636823 
H    -2.0300864    0.7924688   -3.0087934 
H     2.6778038   -1.3559412   -0.4223652 
H     6.7637256   -1.4164418   -2.2549567 
H     5.6060801   -2.7433455   -1.9576444 
H     7.0540649   -2.5669795   -0.9189670 
H     4.2312147   -1.3849911    1.3025133 
H     4.2039332   -2.7844549    0.1833968 
H     5.6375341   -2.4791885    1.1913863 
H     6.9597564    0.5299036   -0.5518122 
H     7.1928709   -0.6354423    0.7740417 
H     5.8726895    0.5715636    0.8640316 
H     5.8271296    0.8602856   -2.3734484 
H     1.6952483    1.6790163   -3.3084299 
H     5.5257328    2.5939740   -5.7698964 
H     6.0514351    1.3151736   -4.6417018 
H     4.5786023    1.0817897   -5.6256237 
H     4.5323916    3.9850683   -2.3787518 
H     5.5011345    4.3144052   -3.8517522 
H     6.0335278    3.0633246   -2.6987751 
H     3.5080134    4.0061221   -5.2870054 
H     2.5016896    2.5393117   -5.2221655 
H     2.4798938    3.7020830   -3.8565131 
H    -2.0285181   -1.8486659   -2.0269191 
H    -3.7017913   -3.7086151   -6.0945685 
H    -4.8206540   -4.4528465   -4.9323279 
H    -3.0636590   -4.7728242   -4.8102438 
H    -4.5106638   -1.3476224   -5.5189715 
H    -5.7301641   -2.0865116   -4.4380389 
H    -4.6240321   -0.8237555   -3.8147307 
H    -3.2606436   -3.9988376   -2.2875291 
H    -4.9975760   -3.7648915   -2.6370198 
H    -4.0568011   -2.4348997   -1.9297968 
H    -2.1514720   -2.3386899   -6.3135191 
H     1.2077724   -0.3733924   -4.4568596 
H     2.0634639   -0.4812466   -7.9064776 
H     2.3365955   -1.1783408   -6.2875789 
H     1.6252778    0.4548558   -6.4571579 
H    -0.6397989   -3.0516031   -7.7611556 
H     0.7782566   -2.4505596   -8.6587196 
H     0.9946579   -3.2450949   -7.0710412 
H    -0.2562803   -0.1142232   -8.8063468 
H    -0.7710175    0.7368120   -7.3174888 
H    -1.6929010   -0.6747740   -7.9073316 
