206
Energy =
C     0.3416850    1.5835968   -3.5272195 
C    -0.8418612    0.8216161   -3.7774926 
C    -2.0438140    1.1251119   -3.0956164 
H    -0.7774164   -0.0964163   -4.3750939 
Pd   -0.3613938    0.6350663   -1.6392706 
P    -1.5584016   -0.6099622   -0.0831943 
P     1.4263682    1.0177043   -0.2010874 
H     0.2060837    2.6407825   -3.2591918 
H    -2.1176339    2.1343730   -2.6603590 
C     4.2191459    0.6900302   -5.1765882 
C     3.2823613   -0.3423052   -4.9996965 
C     2.0242474   -0.0695197   -4.4535565 
C     1.6665477    1.2483101   -4.0831706 
C     2.6222991    2.2730729   -4.2584185 
C     3.8831334    1.9982922   -4.7998397 
H     5.2041313    0.4724085   -5.6023360 
H     3.5382443   -1.3675441   -5.2854000 
H     1.3153977   -0.8907572   -4.3001447 
H     2.3702577    3.2956544   -3.9639975 
H     4.6033768    2.8131232   -4.9281115 
C    -5.8606061   -0.8320280   -3.3360580 
C    -5.6772778    0.2918883   -2.5174904 
C    -4.4250431    0.9092674   -2.4512959 
C    -3.3287146    0.4198128   -3.1989628 
C    -3.5266888   -0.7217375   -4.0088183 
C    -4.7790898   -1.3394668   -4.0742212 
H    -6.8429818   -1.3103302   -3.4011740 
H    -6.5120619    0.6911272   -1.9320594 
H    -4.2865721    1.7834290   -1.8101287 
H    -2.6993926   -1.1276301   -4.5980223 
H    -4.9139418   -2.2237091   -4.7048894 
C    -5.0386185    4.6598237    1.9870811 
C    -3.9352143    4.0004216    1.1337708 
C    -4.2855896    4.2107366   -0.3606910 
C    -2.5878038    4.7014988    1.4416091 
C    -3.7907200    2.4933229    1.4325213 
C    -2.8889925    1.7135495    0.6810159 
C    -4.5126654    1.8439423    2.4495394 
C    -4.3431514    0.4762385    2.7655969 
C    -5.1991732   -0.1705323    3.8721858 
C    -4.7181745   -1.5991787    4.2055930 
C    -5.1413993    0.6780315    5.1666372 
C    -6.6662686   -0.2397653    3.3718555 
C    -3.4160042   -0.2613508    2.0140655 
C    -2.7159651    0.3488520    0.9545877 
C    -2.4775708   -1.9197303   -0.9811776 
C    -3.7654181   -2.3453393   -0.6296371 
C    -4.3446976   -3.4620983   -1.2641184 
C    -5.7147355   -4.0164921   -0.8260769 
C    -6.5558844   -4.4509486   -2.0509662 
C    -6.5238234   -2.9711667   -0.0263728 
C    -5.4562611   -5.2506620    0.0787277 
C    -3.5973659   -4.1110967   -2.2648653 
C    -2.3224075   -3.6743156   -2.6795630 
C    -1.7718827   -2.5658144   -2.0174721 
C    -1.5780275   -4.4193139   -3.8052631 
C    -2.4996317   -4.5684477   -5.0420448 
C    -0.3030738   -3.6711303   -4.2490952 
C    -1.1756730   -5.8234824   -3.2843150 
C    -0.5297749   -1.5829145    1.1018628 
C    -0.4776855   -2.9888915    1.0112886 
C     0.3283915   -3.7149562    1.8933128 
C     1.0863385   -3.0634618    2.8705487 
C     0.2272712   -0.9022392    2.0841198 
C     1.0319323   -1.6623070    2.9746973 
C     0.1800626    0.5742753    2.3112548 
C    -0.4030261    1.0116283    3.5310608 
O    -0.9683234    0.0342540    4.2959672 
C    -1.2154844    0.3010775    5.6888789 
C     0.0778453    0.3940549    6.5154758 
C     0.6047043   -0.9461765    7.0588009 
C     1.0140688   -2.0129671    6.0270664 
C     2.1753698   -1.6158850    5.0993381 
O     1.7320213   -0.9466560    3.9028240 
C    -0.3773516    2.3705376    3.8920670 
C     0.2432142    3.2958357    3.0480618 
C     0.8136290    2.8913060    1.8375352 
C     0.7768799    1.5345357    1.4561023 
C     2.4484600    2.4299621   -0.7742052 
C     1.7756277    3.6095120   -1.1612575 
C     2.4879765    4.7291212   -1.6107114 
C     1.7880772    6.0432165   -2.0092845 
C     0.2527304    5.9440217   -1.8799585 
C     2.1322733    6.3885144   -3.4808518 
C     2.2860723    7.1791701   -1.0787478 
C     3.8969028    4.6225005   -1.6938518 
C     4.5927050    3.4543123   -1.3427751 
C     3.8413949    2.3540700   -0.8762974 
C     6.1301316    3.3511532   -1.3848318 
C     6.6508557    3.4252178    0.0756003 
C     6.5671219    2.0028413   -2.0115972 
C     6.7643793    4.4959743   -2.2026232 
C     2.5931260   -0.3456236    0.1288990 
C     3.5354772   -0.2072177    1.1685118 
C     4.5149090   -1.1891396    1.3677870 
C     5.6213829   -1.0413322    2.4295989 
C     5.3715320    0.1713243    3.3512134 
C     5.6943363   -2.3175037    3.3042270 
C     6.9751763   -0.8406495    1.6984795 
C     4.4937982   -2.3223581    0.5220855 
C     3.5456990   -2.5025689   -0.4988009 
C     2.5922798   -1.4799314   -0.6921294 
C     3.5138446   -3.7584958   -1.3924420 
C     3.5710050   -3.3306747   -2.8796229 
C     2.1950666   -4.5267010   -1.1239222 
C     4.6975980   -4.7075533   -1.1142990 
H    -6.0264250    4.2024220    1.8013133 
H    -4.8187057    4.5877966    3.0666509 
H    -5.1123640    5.7316808    1.7347836 
H    -5.2269297    3.6978532   -0.6245915 
H    -3.4874347    3.8344008   -1.0246855 
H    -4.4098413    5.2868737   -0.5746319 
H    -2.6542194    5.7793570    1.2076359 
H    -2.3256673    4.5901683    2.5070250 
H    -1.7613708    4.2703243    0.8504631 
H    -2.2912551    2.1669592   -0.1179064 
H    -5.2340384    2.4207819    3.0328489 
H    -5.3187332   -2.0113272    5.0346502 
H    -3.6572422   -1.6054580    4.5119220 
H    -4.8318499   -2.2826344    3.3455595 
H    -4.1053702    0.7646228    5.5344864 
H    -5.7499536    0.2045502    5.9570707 
H    -5.5351225    1.6970902    5.0124937 
H    -7.0638314    0.7672224    3.1559241 
H    -6.7372713   -0.8387048    2.4472699 
H    -7.3124676   -0.7052796    4.1376178 
H    -3.2174660   -1.3104194    2.2443603 
H    -4.3110651   -1.8091182    0.1484105 
H    -7.5454919   -4.8103568   -1.7190025 
H    -6.0813676   -5.2742398   -2.6115560 
H    -6.7091496   -3.6078612   -2.7452299 
H    -7.5221841   -3.3756374    0.2131759 
H    -6.0360422   -2.7177942    0.9308723 
H    -6.6574663   -2.0386155   -0.6018549 
H    -4.8645964   -4.9673312    0.9673215 
H    -4.8983842   -6.0321509   -0.4665521 
H    -6.4124677   -5.6852484    0.4218009 
H    -4.0305556   -4.9893162   -2.7525833 
H    -0.7795525   -2.1893590   -2.2884384 
H    -1.9696824   -5.1071255   -5.8471263 
H    -2.7992794   -3.5798565   -5.4320906 
H    -3.4167307   -5.1355607   -4.8099200 
H    -0.5387614   -2.6556054   -4.6155620 
H     0.4324002   -3.5839275   -3.4326273 
H     0.1842869   -4.2187330   -5.0736859 
H    -0.6378846   -6.3867130   -4.0680165 
H    -0.5158536   -5.7382962   -2.4033914 
H    -2.0626989   -6.4111286   -2.9904866 
H    -1.0731630   -3.5170016    0.2637423 
H     0.3612498   -4.8070752    1.8241025 
H     1.7079317   -3.6476735    3.5525705 
H    -1.8428627   -0.5432240    6.0183692 
H    -1.8244670    1.2181184    5.7892639 
H     0.8484657    0.9007303    5.9048546 
H    -0.1154096    1.0600685    7.3765532 
H     1.4744962   -0.7356112    7.7104705 
H    -0.1668685   -1.3849946    7.7204632 
H     1.3138462   -2.9228426    6.5787815 
H     0.1511745   -2.3067475    5.4006015 
H     2.8479813   -0.8880474    5.5819994 
H     2.7898069   -2.4939511    4.8293721 
H    -0.8201131    2.7077094    4.8317518 
H     0.2836805    4.3503091    3.3396722 
H     1.3069188    3.6304533    1.2030970 
H     0.6836230    3.6365219   -1.1022125 
H    -0.2078897    6.9019870   -2.1763677 
H    -0.1631722    5.1593836   -2.5383118 
H    -0.0613184    5.7300389   -0.8426762 
H     1.6534503    7.3401598   -3.7721623 
H     1.7712117    5.6011698   -4.1662670 
H     3.2195650    6.4992947   -3.6319632 
H     1.7973102    8.1336645   -1.3437633 
H     3.3769087    7.3237012   -1.1619357 
H     2.0525307    6.9513473   -0.0236895 
H     4.4615022    5.4873864   -2.0510948 
H     4.3508737    1.4302544   -0.5932030 
H     6.2321977    2.6062964    0.6871682 
H     7.7523438    3.3409185    0.0969397 
H     6.3662564    4.3819219    0.5473657 
H     6.2301997    1.1379117   -1.4147657 
H     7.6689412    1.9558274   -2.0661355 
H     6.1613938    1.8874646   -3.0306314 
H     7.8588530    4.3615866   -2.2450371 
H     6.5734863    5.4843353   -1.7494243 
H     6.3833129    4.5093796   -3.2395060 
H     3.4899843    0.6773530    1.8079801 
H     4.3886939    0.1028188    3.8484507 
H     5.4082170    1.1233611    2.7928651 
H     6.1521483    0.2155872    4.1301651 
H     5.9386753   -3.2137626    2.7090831 
H     6.4773481   -2.2066926    4.0749995 
H     4.7320640   -2.4987134    3.8123859 
H     7.2147209   -1.7014039    1.0501115 
H     7.7946013   -0.7261310    2.4306703 
H     6.9479986    0.0641491    1.0659531 
H     5.2545273   -3.0915499    0.6739435 
H     1.8374261   -1.5578258   -1.4825755 
H     3.5483664   -4.2197525   -3.5349344 
H     2.7165751   -2.6901777   -3.1512609 
H     4.4942150   -2.7639729   -3.0908638 
H     1.3111197   -3.8851289   -1.2798190 
H     2.1606605   -4.8865838   -0.0819541 
H     2.1132147   -5.3980850   -1.7982027 
H     5.6681022   -4.2132174   -1.2964568 
H     4.6870285   -5.0840779   -0.0762945 
H     4.6359347   -5.5822961   -1.7846345 
