200
Energy =
C     3.4591582    0.3313390    1.3443532 
C     3.3379567    1.6652450    0.8312576 
C     2.3776209    2.5453574    1.3800570 
H     3.8580798    1.9454584   -0.0930561 
Pd    1.4104993    0.6425684    0.5811508 
P    -0.4326532    1.4944973   -0.5477910 
P     0.4863009   -1.4799644    0.8407372 
H     3.2716364    0.1828042    2.4160512 
H     2.0028204    2.2923288    2.3848591 
C     5.6697447   -2.8528319   -0.5363021 
C     5.3483705   -1.6985669   -1.2703195 
C     4.6378193   -0.6551863   -0.6695860 
C     4.2420502   -0.7327591    0.6879953 
C     4.5787265   -1.8968309    1.4162113 
C     5.2810496   -2.9443688    0.8081643 
H     6.2211511   -3.6715316   -1.0099079 
H     5.6496279   -1.6152433   -2.3198815 
H     4.3747897    0.2234910   -1.2678382 
H     4.2761488   -1.9800567    2.4658393 
H     5.5290532   -3.8371305    1.3907337 
C     1.2633000    6.5130782    0.1765908 
C     0.6430101    5.8898518    1.2697761 
C     1.0290218    4.6005921    1.6464565 
C     2.0366837    3.9031570    0.9386455 
C     2.6478059    4.5434451   -0.1637494 
C     2.2631898    5.8341043   -0.5386480 
H     0.9713065    7.5267603   -0.1155015 
H    -0.1399859    6.4099009    1.8314149 
H     0.5421147    4.1168670    2.4989860 
H     3.4320593    4.0332531   -0.7297970 
H     2.7437679    6.3140921   -1.3966761 
C     2.5753158   -1.3633775   -4.1068503 
C     2.0955728   -2.8305241   -4.0936779 
C     3.3317746   -3.7669332   -4.1066040 
C     1.2484058   -3.0695387   -5.3678432 
C     1.2676427   -3.1418327   -2.8321434 
C     1.2574353   -2.2890845   -1.7135617 
C     0.5087870   -4.3254669   -2.7552635 
C    -0.2767479   -4.6731992   -1.6369021 
C    -1.0946707   -5.9783425   -1.6459353 
C    -1.9642108   -6.1176960   -0.3787303 
C    -2.0297360   -5.9866677   -2.8819882 
C    -0.1217530   -7.1828423   -1.7203036 
C    -0.2831878   -3.7898206   -0.5463870 
C     0.4899589   -2.6148619   -0.5844648 
C     1.2912960   -2.3626074    2.2315999 
C     1.7495101   -3.6866846    2.1200140 
C     2.4025996   -4.3083345    3.1989833 
C     2.8678361   -5.7762812    3.1269494 
C     4.3193448   -5.9126110    3.6503109 
C     2.8186046   -6.3241550    1.6837090 
C     1.9207336   -6.6244635    4.0166541 
C     2.5882681   -3.5613656    4.3826505 
C     2.1555937   -2.2284251    4.5195316 
C     1.5070446   -1.6403602    3.4177860 
C     2.3434835   -1.4105590    5.8124904 
C     0.9487431   -1.1739219    6.4487117 
C     3.2399423   -2.1377797    6.8361502 
C     2.9951009   -0.0443375    5.4768330 
C    -1.2937057   -1.3227385    1.3296668 
C    -1.6918844   -1.5154911    2.6677808 
C    -3.0279702   -1.3318380    3.0459833 
C    -3.9878783   -0.9620222    2.0983163 
C    -2.2565556   -0.9552265    0.3542487 
C    -3.6045016   -0.7982682    0.7585697 
C    -1.9647356   -0.8096636   -1.1057724 
C    -2.5447596   -1.7652366   -1.9749724 
O    -3.2708513   -2.7660186   -1.3783824 
C    -4.5684726   -3.0858292   -1.9171171 
C    -5.5502364   -1.9134640   -1.8324533 
C    -5.6597166   -1.2714721   -0.4464584 
O    -4.5079246   -0.4312740   -0.2047642 
C    -2.3431143   -1.7023595   -3.3620443 
C    -1.5887895   -0.6537114   -3.8991700 
C    -1.0326957    0.3232964   -3.0643343 
C    -1.2129980    0.2510110   -1.6684738 
C    -1.7859026    2.1083957    0.5070076 
C    -3.0399300    2.4525402   -0.0265950 
C    -4.0640816    2.9100026    0.8190915 
C    -5.4605079    3.2852100    0.2888606 
C    -6.5258336    2.4383369    1.0313117 
C    -5.5926310    3.0092657   -1.2238562 
C    -5.7127669    4.7925534    0.5459668 
C    -3.7868745    3.0013701    2.1991817 
C    -2.5529021    2.6259523    2.7658022 
C    -1.5518489    2.1768785    1.8898772 
C    -2.3205522    2.7277018    4.2856015 
C    -1.0149068    2.0195191    4.7102943 
C    -3.4942862    2.0654665    5.0495128 
C    -2.2307245    4.2269649    4.6707909 
C     0.0917729    2.8358504   -1.6798528 
C     1.2891899    2.6301914   -2.3952291 
C     1.7173577    3.5591085   -3.3580752 
C     3.0031992    3.3532619   -4.1834987 
C     2.5955536    2.9295364   -5.6186887 
C     3.9061902    2.2562036   -3.5796878 
C     3.8236294    4.6659042   -4.2412034 
C     0.9064185    4.6922366   -3.5744938 
C    -0.2696221    4.9480447   -2.8434739 
C    -0.6636751    3.9995809   -1.8805821 
C    -1.1308498    6.1897179   -3.1478787 
C    -1.9280626    5.9058790   -4.4487069 
C    -2.1268604    6.4875767   -2.0043174 
C    -0.2431325    7.4408750   -3.3573402 
H     3.1230610   -1.1549320   -5.0422769 
H     3.2594556   -1.1524472   -3.2685169 
H     1.7233626   -0.6630785   -4.0449661 
H     3.9585459   -3.5685506   -4.9950180 
H     3.9458691   -3.6126468   -3.2023984 
H     3.0255690   -4.8274037   -4.1332663 
H     1.8355135   -2.8081472   -6.2658662 
H     0.3371682   -2.4468623   -5.3541905 
H     0.9412341   -4.1239191   -5.4719452 
H     1.8305089   -1.3579871   -1.7058460 
H     0.5205919   -5.0065700   -3.6120848 
H    -2.5568706   -7.0472391   -0.4338190 
H    -1.3474287   -6.1719105    0.5361583 
H    -2.6621136   -5.2683036   -0.2782904 
H    -2.7048478   -5.1149427   -2.8558044 
H    -1.4627325   -5.9528553   -3.8280917 
H    -2.6434939   -6.9049077   -2.8919387 
H    -0.6864117   -8.1322629   -1.7335669 
H     0.5012761   -7.1461775   -2.6308579 
H     0.5540052   -7.1942245   -0.8470891 
H    -0.9009322   -3.9900812    0.3319718 
H     1.6023464   -4.2221523    1.1809778 
H     4.4110651   -5.6104799    4.7073496 
H     5.0150898   -5.2935642    3.0578227 
H     4.6490147   -6.9638475    3.5781707 
H     1.7890668   -6.3444874    1.2851823 
H     3.4408127   -5.7207970    0.9990549 
H     3.1985078   -7.3600836    1.6670211 
H     1.9466841   -6.2843800    5.0667604 
H     2.2206965   -7.6874970    3.9932727 
H     0.8782767   -6.5500293    3.6599385 
H     3.0920669   -4.0405896    5.2249371 
H     1.1664583   -0.5994617    3.4757613 
H     0.2808590   -0.6274861    5.7603496 
H     1.0429808   -0.5785242    7.3745972 
H     0.4665831   -2.1341570    6.7022157 
H     4.2420299   -2.3469616    6.4219707 
H     3.3696331   -1.5058817    7.7315121 
H     2.7937291   -3.0915172    7.1675897 
H     3.9712992   -0.1835812    4.9794372 
H     3.1600495    0.5364222    6.4012389 
H     2.3546589    0.5670435    4.8161269 
H    -0.9609607   -1.8271338    3.4179934 
H    -3.3200906   -1.4809166    4.0905704 
H    -5.0308434   -0.7977972    2.3851120 
H    -4.4860423   -3.4477725   -2.9599008 
H    -4.9075410   -3.9315791   -1.2968341 
H    -5.2674548   -1.1257025   -2.5542049 
H    -6.5466874   -2.2853452   -2.1371382 
H    -6.5475124   -0.6175624   -0.4003533 
H    -5.7451870   -2.0345025    0.3494872 
H    -2.7715973   -2.4694409   -4.0129493 
H    -1.4374622   -0.5917431   -4.9817066 
H    -0.4671087    1.1498450   -3.5019035 
H    -3.2148569    2.3269908   -1.0972793 
H    -7.5341697    2.6602368    0.6388845 
H    -6.3201232    1.3636322    0.8908235 
H    -6.5354424    2.6461077    2.1150253 
H    -5.4094271    1.9449916   -1.4530298 
H    -6.6123777    3.2639885   -1.5605866 
H    -4.8870144    3.6203248   -1.8149597 
H    -4.9622365    5.4095766    0.0206964 
H    -6.7148243    5.0818307    0.1819322 
H    -5.6601581    5.0356630    1.6215283 
H    -4.5777526    3.3619177    2.8648794 
H    -0.5805936    1.8446226    2.2658509 
H    -1.0183307    0.9594983    4.4011396 
H    -0.1200024    2.5028639    4.2788717 
H    -0.9075077    2.0557971    5.8078554 
H    -3.3160258    2.1163358    6.1381610 
H    -3.5968678    1.0051941    4.7617541 
H    -4.4547503    2.5691608    4.8479153 
H    -3.1592354    4.7626484    4.4070790 
H    -1.3945346    4.7190720    4.1427164 
H    -2.0671363    4.3389438    5.7576762 
H     1.8751105    1.7276223   -2.1906165 
H     2.0278098    1.9822982   -5.5984533 
H     3.4911452    2.7835829   -6.2490604 
H     1.9616251    3.6974636   -6.0952065 
H     4.8294976    2.1615243   -4.1761809 
H     4.2012271    2.5041509   -2.5439646 
H     3.4149469    1.2698172   -3.5746709 
H     3.2704905    5.4829371   -4.7338693 
H     4.7537010    4.5051772   -4.8139235 
H     4.1005801    5.0032194   -3.2265483 
H     1.2123017    5.4128972   -4.3381603 
H    -1.5648693    4.1591109   -1.2862806 
H    -2.5793056    5.0227072   -4.3236643 
H    -2.5631699    6.7717722   -4.7091305 
H    -1.2477982    5.7104462   -5.2962143 
H    -2.6784648    7.4175755   -2.2245003 
H    -1.6050021    6.6157902   -1.0396967 
H    -2.8751455    5.6840077   -1.8862924 
H    -0.8776319    8.3257510   -3.5391328 
H     0.4271203    7.3357551   -4.2273580 
H     0.3789656    7.6386439   -2.4681516 
