197
Energy =
C    -0.6826281   -3.2184582    1.6469892 
C    -0.5535532   -3.7199346    0.3098101 
C     0.6875418   -3.6223413   -0.3607125 
H    -1.4480664   -4.0110883   -0.2546287 
Pd   -0.0618006   -1.5790405    0.3020345 
P     0.3328672   -0.2801714   -1.5808558 
P    -0.1020182    0.2542296    1.7348627 
H     0.1940417   -3.2998117    2.3031191 
H     1.5761742   -3.4832722    0.2762731 
C    -4.4028730   -2.6019622    3.7301547 
C    -3.1853346   -2.6301739    4.4258090 
C    -1.9834689   -2.8500910    3.7422746 
C    -1.9718263   -3.0392222    2.3411045 
C    -3.2078725   -3.0040106    1.6508713 
C    -4.4072994   -2.7960214    2.3384745 
H    -5.3424716   -2.4332649    4.2661751 
H    -3.1702163   -2.4835636    5.5103215 
H    -1.0373887   -2.8664292    4.2944506 
H    -3.2323132   -3.1255185    0.5628980 
H    -5.3526954   -2.7787577    1.7861280 
C     1.7198182   -4.6027384   -4.4112814 
C     2.6819183   -4.0976420   -3.5237974 
C     2.3230442   -3.7949395   -2.2075469 
C     0.9974509   -3.9835817   -1.7494088 
C     0.0395663   -4.4900607   -2.6573358 
C     0.3993607   -4.7947373   -3.9734440 
H     1.9985571   -4.8500708   -5.4404818 
H     3.7134998   -3.9424839   -3.8565684 
H     3.0760883   -3.4005667   -1.5178825 
H    -0.9923858   -4.6512449   -2.3337897 
H    -0.3555444   -5.1816669   -4.6647899 
C    -3.6025305    4.8337866    4.3079229 
C    -2.6006012    4.8042602    3.1258672 
C    -1.1949657    5.1569902    3.6561442 
C    -2.9994110    5.8660650    2.0684167 
C    -2.6319723    3.4093534    2.4736408 
C    -1.5021709    2.5793836    2.4209798 
C    -3.8212076    2.9318538    1.8833034 
C    -3.9211468    1.6830988    1.2411220 
C    -5.2565746    1.2268663    0.6223870 
C    -5.0531216    0.0436385   -0.3491387 
C    -5.9170347    2.3852053   -0.1645701 
C    -6.1939216    0.7808884    1.7749490 
C    -2.7734939    0.8686282    1.2188904 
C    -1.5802069    1.3162518    1.8048640 
C     0.2537086   -0.2740199    3.4541552 
C     1.2915865   -1.2008210    3.6511925 
C     1.5978465   -1.6871501    4.9357912 
C     2.7619679   -2.6826533    5.1083721 
C     2.8725189   -3.2045660    6.5557997 
C     2.5492090   -3.8952632    4.1655292 
C     4.0856850   -1.9657976    4.7348435 
C     0.8143982   -1.2231992    6.0096238 
C    -0.2496801   -0.3101210    5.8419337 
C    -0.5208214    0.1585577    4.5445556 
C    -1.0508024    0.1811627    7.0637675 
C    -1.4800759   -1.0165839    7.9474123 
C    -2.3207331    0.9543330    6.6449930 
C    -0.1380157    1.1263480    7.8890300 
C     1.2809597    1.4007639    1.2761043 
C     2.4805932    1.3870576    2.0135404 
C     3.5571163    2.2037999    1.6464733 
C     3.4361006    3.0740130    0.5602226 
C     1.1477744    2.2693526    0.1569150 
C     2.2277890    3.1287999   -0.1497249 
C    -0.0912288    2.3749695   -0.6724172 
C    -0.7949902    3.6006881   -0.6695289 
O    -0.3069309    4.6585852    0.0746310 
C     0.3612633    5.6737751   -0.7044900 
C     1.8609003    5.3922288   -0.7671772 
O     2.0978045    4.0315435   -1.1885175 
C    -1.9910445    3.7623090   -1.3842116 
C    -2.4674239    2.7154517   -2.1775318 
C    -1.7525953    1.5140011   -2.2548203 
C    -0.5739753    1.3301930   -1.5064220 
C     2.0612073    0.1773855   -1.9309160 
C     2.3749413    1.1588890   -2.8879055 
C     3.7131762    1.5148593   -3.1211175 
C     4.1084156    2.5996482   -4.1406071 
C     4.9854602    1.9610225   -5.2472058 
C     4.9038948    3.7120840   -3.4093037 
C     2.8705859    3.2462129   -4.7976986 
C     4.7085668    0.8570226   -2.3675200 
C     4.4211866   -0.1061403   -1.3807316 
C     3.0711271   -0.4357081   -1.1736440 
C     5.5543348   -0.7843978   -0.5865287 
C     6.5652801    0.2734634   -0.0786882 
C     6.2781553   -1.7823341   -1.5273011 
C     5.0099231   -1.5521289    0.6391917 
C    -0.3637952   -1.1071793   -3.0595345 
C    -1.6193058   -1.7310864   -2.9073192 
C    -2.2749572   -2.2998096   -4.0111953 
C    -3.6643423   -2.9575065   -3.8949690 
C    -3.6631748   -4.3390322   -4.5961869 
C    -4.7025735   -2.0278263   -4.5754253 
C    -4.0813571   -3.1706801   -2.4240962 
C    -1.6257438   -2.2285685   -5.2611760 
C    -0.3503168   -1.6580140   -5.4347209 
C     0.2777085   -1.0977593   -4.3057698 
C     0.2960264   -1.5840457   -6.8321265 
C     1.8127790   -1.3000377   -6.7445104 
C     0.0941278   -2.9103166   -7.6051893 
C    -0.3886354   -0.4293601   -7.6104917 
H    -3.5974337    5.8280041    4.7892796 
H    -4.6340243    4.6259331    3.9741738 
H    -3.3332130    4.0798722    5.0689140 
H    -1.2092291    6.1665292    4.1021401 
H    -0.8646155    4.4523191    4.4404137 
H    -0.4495371    5.1524469    2.8419383 
H    -2.9772111    6.8760572    2.5154903 
H    -4.0179822    5.6949605    1.6788104 
H    -2.2928627    5.8384738    1.2215033 
H    -0.5463959    2.9116582    2.8325636 
H    -4.7079638    3.5722785    1.9165196 
H    -6.0148746   -0.2267706   -0.8186438 
H    -4.3400385    0.3033763   -1.1516748 
H    -4.6768537   -0.8519205    0.1722369 
H    -6.8483519    2.0333848   -0.6421715 
H    -5.2417363    2.7593151   -0.9534886 
H    -6.1843296    3.2335987    0.4877253 
H    -5.7390951   -0.0451659    2.3487965 
H    -7.1647217    0.4371274    1.3739477 
H    -6.3861648    1.6149683    2.4724166 
H    -2.7856585   -0.1131781    0.7376148 
H     1.8641196   -1.5515921    2.7839410 
H     3.0760765   -2.3883103    7.2707267 
H     3.7061662   -3.9239458    6.6287820 
H     1.9510015   -3.7240468    6.8725260 
H     2.5536859   -3.5946271    3.1023403 
H     1.5888034   -4.3973462    4.3776427 
H     3.3604497   -4.6318783    4.3013642 
H     4.9409147   -2.6569917    4.8408691 
H     4.0696007   -1.6060843    3.6910581 
H     4.2594845   -1.0969467    5.3933382 
H     1.0328846   -1.5859630    7.0163895 
H    -1.3433888    0.8534474    4.3692796 
H    -2.1057033   -1.7257406    7.3781992 
H    -2.0674304   -0.6570323    8.8103169 
H    -0.6141163   -1.5715212    8.3464131 
H    -2.0786166    1.8778963    6.0901154 
H    -2.9819424    0.3357635    6.0123098 
H    -2.8878815    1.2499611    7.5442152 
H     0.7713578    0.6040353    8.2344023 
H     0.1764786    1.9938400    7.2825059 
H    -0.6762832    1.5009914    8.7780693 
H     2.5738096    0.7452474    2.8929351 
H     4.4865065    2.1696807    2.2239136 
H     4.2589195    3.7282279    0.2574502 
H    -0.0730191    5.7037391   -1.7202985 
H     0.1743639    6.6412508   -0.2071290 
H     2.3309049    5.5596530    0.2189770 
H     2.3434691    6.0513085   -1.5095034 
H    -2.5246756    4.7146353   -1.3148026 
H    -3.3906021    2.8375023   -2.7529386 
H    -2.1110254    0.7170174   -2.9110042 
H     1.5638084    1.6613515   -3.4195453 
H     4.4302328    1.1662632   -5.7766527 
H     5.9051960    1.5140587   -4.8313653 
H     5.2856876    2.7247259   -5.9867068 
H     4.2873003    4.1512616   -2.6065101 
H     5.8342212    3.3234822   -2.9599236 
H     5.1836291    4.5103830   -4.1197451 
H     2.2758583    2.5088279   -5.3666241 
H     3.1928979    4.0286048   -5.5063326 
H     2.2179339    3.7165258   -4.0415394 
H     5.7550169    1.1243984   -2.5458219 
H     2.7774910   -1.1525277   -0.4024511 
H     7.3585459   -0.2144574    0.5145366 
H     7.0566370    0.8085289   -0.9086564 
H     6.0624643    1.0200536    0.5596167 
H     5.5768168   -2.5512551   -1.8977257 
H     7.1008305   -2.2916797   -0.9939988 
H     6.7053161   -1.2638029   -2.4032885 
H     5.8476163   -1.9711130    1.2225849 
H     4.4292975   -0.8861409    1.3015907 
H     4.3625229   -2.3981490    0.3464207 
H    -2.0773615   -1.7541207   -1.9124619 
H    -3.4335637   -4.2598049   -5.6720425 
H    -4.6566570   -4.8115437   -4.5034750 
H    -2.9194686   -5.0140360   -4.1368069 
H    -4.4562111   -1.8638845   -5.6388455 
H    -5.7129718   -2.4715474   -4.5221289 
H    -4.7297295   -1.0430800   -4.0757962 
H    -3.3594940   -3.8161623   -1.8913891 
H    -5.0653954   -3.6678776   -2.3828231 
H    -4.1687116   -2.2190025   -1.8743561 
H    -2.1329083   -2.6477073   -6.1351255 
H     1.2666062   -0.6445112   -4.3926274 
H     2.2537866   -1.3213720   -7.7557941 
H     2.3283624   -2.0564673   -6.1270415 
H     2.0247632   -0.3043404   -6.3165918 
H    -0.9715431   -3.1258452   -7.7926941 
H     0.5931854   -2.8523139   -8.5881480 
H     0.5231489   -3.7615953   -7.0499398 
H     0.0427710   -0.3377818   -8.6235676 
H    -0.2498755    0.5323206   -7.0855241 
H    -1.4734844   -0.6081535   -7.7129558 
