197
Energy =
C    -1.6308290    2.4977260    2.2532192 
C    -2.7979861    1.7223607    1.9793990 
C    -2.8822556    0.3778663    2.4086718 
H    -3.5587118    2.1147519    1.2916926 
Pd   -1.0745940    0.7014252    1.0586190 
P    -0.9983660   -1.3265513   -0.0984842 
P     1.0892476    1.2605269    0.4155509 
H    -1.0946579    2.2718290    3.1856799 
H    -2.1861289    0.0635491    3.2031547 
C    -0.8955250    6.4624334    0.7449623 
C    -1.6416280    5.5529363   -0.0239385 
C    -1.8883526    4.2615750    0.4529611 
C    -1.3992490    3.8522517    1.7149008 
C    -0.6554664    4.7787397    2.4763994 
C    -0.4051646    6.0696884    1.9986120 
H    -0.6999098    7.4711645    0.3664457 
H    -2.0264106    5.8526196   -1.0036908 
H    -2.4509536    3.5531751   -0.1665113 
H    -0.2716160    4.4783803    3.4548957 
H     0.1755160    6.7680174    2.6094663 
C    -6.1908167   -2.3092160    1.8617890 
C    -4.9261909   -2.7962304    2.2269112 
C    -3.8585688   -1.9120450    2.4060275 
C    -4.0268788   -0.5231129    2.2011974 
C    -5.3058826   -0.0454131    1.8370024 
C    -6.3776209   -0.9306348    1.6788530 
H    -7.0305153   -2.9989134    1.7298666 
H    -4.7708864   -3.8704667    2.3713014 
H    -2.8715137   -2.2988692    2.6828593 
H    -5.4745047    1.0291598    1.7137908 
H    -7.3690108   -0.5420983    1.4250342 
C    -0.3024149   -4.2261318    5.3100246 
C     0.7195685   -3.3449983    4.5460197 
C     2.1597726   -3.7789359    4.9162739 
C     0.5349113   -1.8738254    4.9799231 
C     0.4842312   -3.5259349    3.0341782 
C    -0.0772861   -2.5093823    2.2431564 
C     0.8128716   -4.7371505    2.3945484 
C     0.6374818   -4.9540622    1.0115349 
C     1.0665714   -6.2917457    0.3798152 
C     0.8862433   -6.2869919   -1.1530732 
C     2.5655343   -6.5415405    0.6877872 
C     0.2044068   -7.4308554    0.9811567 
C     0.0798017   -3.9127375    0.2517441 
C    -0.2929890   -2.7053387    0.8696079 
C    -2.6520423   -1.8265120   -0.7048993 
C    -3.0466400   -3.1691616   -0.8126600 
C    -4.2741286   -3.5018585   -1.4114329 
C    -4.7429833   -4.9624322   -1.5637163 
C    -6.1181609   -5.1406795   -0.8714175 
C    -3.7479890   -5.9584425   -0.9299181 
C    -4.8747638   -5.2923695   -3.0732304 
C    -5.0736124   -2.4493071   -1.9017843 
C    -4.7126438   -1.0914754   -1.7936787 
C    -3.4899091   -0.7958103   -1.1670608 
C    -5.5991378    0.0084182   -2.4103910 
C    -7.0854452   -0.2121465   -2.0387813 
C    -5.4385648   -0.0614544   -3.9522376 
C    -5.1860161    1.4172140   -1.9287800 
C     0.0139826   -1.3153971   -1.6474634 
C    -0.6306921   -1.3571446   -2.8983179 
C     0.1126725   -1.3724105   -4.0845786 
C     1.5078911   -1.3673167   -4.0337059 
C     1.4331641   -1.2903969   -1.5773321 
C     2.1564327   -1.3514348   -2.7900818 
C     2.2015134   -1.2847148   -0.2961875 
C     3.0419690   -2.3940440   -0.0333829 
O     3.1225594   -3.4164122   -0.9603944 
C     4.3394554   -3.4250409   -1.7372003 
C     4.1304290   -2.6506444   -3.0373686 
O     3.5384378   -1.3663621   -2.7523931 
C     3.7755797   -2.5003835    1.1561452 
C     3.7407483   -1.4536586    2.0800615 
C     2.9661300   -0.3178738    1.8196593 
C     2.1845882   -0.2221288    0.6509437 
C     1.3319914    1.7716118   -1.3204169 
C     2.6330353    1.7965423   -1.8644252 
C     2.8395396    2.2214562   -3.1830175 
C     4.2391635    2.2675913   -3.8250262 
C     4.2709719    1.3012542   -5.0372639 
C     4.5364631    3.7136553   -4.2975857 
C     5.3397757    1.8345124   -2.8336137 
C     1.7058167    2.6092092   -3.9352977 
C     0.3978813    2.5860725   -3.4236814 
C     0.2275188    2.1581552   -2.0892659 
C    -0.8322518    3.0005334   -4.2567493 
C    -0.4436129    3.5146974   -5.6582149 
C    -1.5953612    4.1267981   -3.5158568 
C    -1.7689443    1.7779632   -4.4242396 
C     1.8528745    2.5811558    1.4389632 
C     1.7403866    2.4918391    2.8406382 
C     2.3446916    3.4478964    3.6742802 
C     2.2944611    3.3496922    5.2122125 
C     1.7790808    4.6809727    5.8155543 
C     1.3675445    2.2115072    5.6901053 
C     3.7290687    3.0693416    5.7308971 
C     3.0354694    4.5094530    3.0544970 
C     3.1333244    4.6487383    1.6571396 
C     2.5278420    3.6641980    0.8545093 
C     3.9054852    5.8359621    1.0476843 
C     3.9304351    5.7776415   -0.4949141 
C     5.3680708    5.8039962    1.5618967 
C     3.2315787    7.1641319    1.4762347 
H    -0.1606998   -4.1254979    6.4011210 
H    -1.3370581   -3.9264842    5.0657094 
H    -0.1859279   -5.2918659    5.0466318 
H     2.3356088   -3.6282701    5.9959806 
H     2.3394714   -4.8451149    4.6976041 
H     2.9021635   -3.1853899    4.3556974 
H     0.7602429   -1.7694346    6.0551527 
H    -0.5023749   -1.5250149    4.8281010 
H     1.2124721   -1.2025873    4.4220340 
H    -0.3290654   -1.5370063    2.6753529 
H     1.2448457   -5.5438123    2.9957742 
H     1.4788148   -5.4817281   -1.6207604 
H     1.2261894   -7.2511914   -1.5689398 
H    -0.1724902   -6.1582445   -1.4407720 
H     2.8943168   -7.4922789    0.2315939 
H     2.7580113   -6.6076212    1.7725562 
H     3.1769033   -5.7210699    0.2749508 
H    -0.8664682   -7.2653393    0.7664431 
H     0.4979598   -8.4033860    0.5472307 
H     0.3258528   -7.4988241    2.0763512 
H    -0.0355587   -4.0151884   -0.8294531 
H    -2.3926839   -3.9505110   -0.4226993 
H    -6.4747675   -6.1787345   -0.9943556 
H    -6.8826700   -4.4690110   -1.2981956 
H    -6.0420616   -4.9267535    0.2081627 
H    -2.7564465   -5.9126341   -1.4142234 
H    -4.1275956   -6.9878869   -1.0473402 
H    -3.6138494   -5.7713829    0.1506072 
H    -5.2061212   -6.3373595   -3.2089094 
H    -3.9054663   -5.1667862   -3.5871341 
H    -5.6114239   -4.6378357   -3.5704243 
H    -6.0209570   -2.6993232   -2.3898307 
H    -3.1607139    0.2412833   -1.0445969 
H    -7.7066835    0.5892724   -2.4756562 
H    -7.4701712   -1.1723648   -2.4217211 
H    -7.2215707   -0.2011145   -0.9447709 
H    -5.7587313   -1.0441049   -4.3402478 
H    -6.0521731    0.7171076   -4.4404468 
H    -4.3850956    0.0934596   -4.2438986 
H    -5.2281477    1.4907628   -0.8275898 
H    -5.8753764    2.1706720   -2.3467058 
H    -4.1677533    1.6875009   -2.2580630 
H    -1.7215706   -1.3890987   -2.9483342 
H    -0.4017454   -1.3992079   -5.0503384 
H     2.1103773   -1.3834694   -4.9466481 
H     4.5839451   -4.4801055   -1.9496732 
H     5.1585736   -2.9798393   -1.1438983 
H     5.0970243   -2.4615907   -3.5349517 
H     3.4766495   -3.2143803   -3.7273941 
H     4.3745263   -3.3987340    1.3315111 
H     4.3292843   -1.5110888    3.0012878 
H     2.9865424    0.5103004    2.5309160 
H     3.4716242    1.4639960   -1.2481036 
H     4.0854288    0.2674693   -4.7004981 
H     5.2600128    1.3387960   -5.5279961 
H     3.5102180    1.5661241   -5.7922078 
H     5.5417390    3.7661245   -4.7521769 
H     4.5032656    4.4190330   -3.4487726 
H     3.8086932    4.0562892   -5.0533753 
H     5.1795790    0.7991869   -2.4861924 
H     6.3242400    1.8792669   -3.3306906 
H     5.3808952    2.5006360   -1.9530724 
H     1.8616440    2.9355215   -4.9663542 
H    -0.7702908    2.1109278   -1.6393438 
H    -1.3532369    3.8043050   -6.2122227 
H     0.2105962    4.4023233   -5.6000191 
H     0.0729622    2.7390492   -6.2504559 
H    -0.9402460    4.9973651   -3.3392421 
H    -2.4626157    4.4583231   -4.1143207 
H    -1.9733758    3.7820456   -2.5390916 
H    -1.2713923    0.9804909   -5.0003142 
H    -2.6902169    2.0710743   -4.9586925 
H    -2.0602659    1.3519932   -3.4486319 
H     1.1749872    1.6620369    3.2744226 
H     0.7556035    4.9065511    5.4673878 
H     1.7566194    4.6143533    6.9175255 
H     2.4254573    5.5334933    5.5467938 
H     0.3301877    2.3542613    5.3356863 
H     1.3414159    2.1907841    6.7930248 
H     1.7175552    1.2211758    5.3494343 
H     4.4259249    3.8753273    5.4430388 
H     3.7321379    2.9929058    6.8330239 
H     4.1162008    2.1217411    5.3162287 
H     3.5136528    5.2624621    3.6896267 
H     2.5796247    3.7360286   -0.2323480 
H     2.9136631    5.8166254   -0.9239149 
H     4.4252958    4.8605465   -0.8605203 
H     4.4935960    6.6409364   -0.8891203 
H     5.8634063    4.8592040    1.2766467 
H     5.9426839    6.6412765    1.1273534 
H     5.4185474    5.8973096    2.6604318 
H     3.1926330    7.2666224    2.5747705 
H     3.7971092    8.0247954    1.0769074 
H     2.1996855    7.2173387    1.0897838 
