206
Energy =
C    -0.5951534   -3.6985480    0.7909559 
C    -1.9564605   -3.3744817    0.5881678 
C    -2.4092040   -2.9534350   -0.7027644 
H    -2.6236948   -3.2868758    1.4543911 
Pd   -0.8356357   -1.5661186    0.0334080 
P    -0.8617424    0.1128679   -1.5761040 
P     0.7323977   -0.4868484    1.3771420 
H    -0.0122734   -3.9449172   -0.1107238 
H    -1.8924547   -3.3752388   -1.5748400 
C     1.4374778   -4.8043123    4.4079388 
C     2.1227926   -4.7462569    3.1853807 
C     1.4389563   -4.3883229    2.0199520 
C     0.0595829   -4.0753337    2.0501511 
C    -0.6142754   -4.1299274    3.2917838 
C     0.0690853   -4.4907161    4.4565212 
H     1.9672060   -5.0962403    5.3203284 
H     3.1906741   -4.9838298    3.1383386 
H     1.9774226   -4.3420868    1.0684329 
H    -1.6804543   -3.8933890    3.3485462 
H    -0.4677532   -4.5248747    5.4096742 
C    -6.3777653   -1.5121779   -1.5622564 
C    -5.8984687   -1.4887862   -0.2420892 
C    -4.6075600   -1.9402343    0.0488107 
C    -3.7672017   -2.4443303   -0.9721961 
C    -4.2609083   -2.4555366   -2.2965014 
C    -5.5505319   -1.9952355   -2.5863547 
H    -7.3888799   -1.1579430   -1.7880091 
H    -6.5347551   -1.1108195    0.5647333 
H    -4.2460278   -1.8916325    1.0812997 
H    -3.6228654   -2.8280486   -3.1040427 
H    -5.9124289   -2.0224924   -3.6188515 
C    -3.1456646   -2.3668637    6.1211991 
C    -2.8700276   -1.1128632    5.2530837 
C    -3.8254655   -1.1537629    4.0417630 
C    -3.1641726    0.1669724    6.0776151 
C    -1.3907390   -1.0901433    4.8207622 
C    -0.9978706   -0.9076879    3.4849358 
C    -0.3712505   -1.2405675    5.7827112 
C     0.9977604   -1.2638995    5.4556481 
C     2.0605259   -1.3948895    6.5646415 
C     3.4558416   -1.7151656    5.9853531 
C     2.1303129   -0.0397832    7.3176819 
C     1.6792306   -2.5139517    7.5647089 
C     1.3540304   -1.0953104    4.1033952 
C     0.3667666   -0.8877684    3.1298247 
C     2.4689408   -0.9036993    0.9992520 
C     3.5467670   -0.2987493    1.6684946 
C     4.8668246   -0.6939954    1.3848036 
C     6.0712333   -0.1399960    2.1717569 
C     5.6825009    1.0882027    3.0230482 
C     7.2103942    0.2769695    1.2091544 
C     6.5835575   -1.2619582    3.1137204 
C     5.0604879   -1.6685916    0.3842048 
C     4.0023447   -2.2453481   -0.3472983 
C     2.6981410   -1.8514258   -0.0124873 
C     4.2857435   -3.2839638   -1.4495652 
C     4.8720597   -4.5612486   -0.7950774 
C     3.0019971   -3.6631035   -2.2205637 
C     5.3047017   -2.7045662   -2.4629780 
C     0.6541126    1.3556204    1.3419531 
C     0.1843223    2.0771517    2.4573751 
C     0.1177236    3.4731982    2.4035351 
C     0.5188856    4.1657674    1.2569036 
C     1.0560205    2.0345912    0.1677023 
C     0.9967568    3.4525317    0.1429901 
C     1.6382435    1.3547311   -1.0291254 
C     3.0183858    1.5832783   -1.2797160 
O     3.6711512    2.3213335   -0.3371854 
C     4.9233093    2.9387576   -0.6877520 
C     4.7478563    4.1097173   -1.6682414 
C     4.4635693    5.4713155   -1.0092353 
C     3.1747638    5.5965419   -0.1765951 
C     1.8639389    5.4164028   -0.9616931 
O     1.4203929    4.0457653   -1.0118880 
C     3.6377188    1.0554628   -2.4261353 
C     2.8796344    0.3150513   -3.3378637 
C     1.5207420    0.0766413   -3.1123666 
C     0.8930399    0.5815757   -1.9543477 
C    -1.7488742    1.6598335   -1.1953915 
C    -1.5748304    2.7968619   -2.0111495 
C    -2.3112775    3.9626640   -1.7590353 
C    -2.2002175    5.2185763   -2.6447954 
C    -1.8717506    6.4506654   -1.7645731 
C    -3.5577019    5.4486428   -3.3586987 
C    -1.0965710    5.0684672   -3.7129735 
C    -3.1986526    3.9583769   -0.6579207 
C    -3.3720134    2.8498972    0.1869035 
C    -2.6320763    1.6853741   -0.1079388 
C    -4.3140995    2.8716295    1.4073583 
C    -5.1334316    4.1757826    1.4927813 
C    -5.2977745    1.6797719    1.3175950 
C    -3.4618744    2.7404963    2.6952825 
C    -1.5305534   -0.5117128   -3.1670235 
C    -2.4983134    0.1852012   -3.9109317 
C    -2.9722327   -0.3351617   -5.1283222 
C    -3.9838372    0.4320006   -6.0033072 
C    -4.5455446    1.6740124   -5.2791237 
C    -3.2545093    0.8960012   -7.2919765 
C    -5.1713718   -0.4851857   -6.3872305 
C    -2.4551871   -1.5730859   -5.5690430 
C    -1.5003727   -2.3041300   -4.8377762 
C    -1.0556669   -1.7541875   -3.6211322 
C    -0.9134906   -3.6452852   -5.3208469 
C    -1.6388744   -4.1795618   -6.5732243 
C    -1.0329498   -4.7061804   -4.1967020 
C     0.5836036   -3.4279235   -5.6646486 
H    -2.9270751   -3.2918332    5.5585389 
H    -2.5372510   -2.3764263    7.0412140 
H    -4.2071680   -2.3931178    6.4240681 
H    -3.6425822   -2.0472943    3.4181190 
H    -3.7299641   -0.2593362    3.4041410 
H    -4.8711569   -1.1991109    4.3909917 
H    -4.2180420    0.1788901    6.4090508 
H    -2.5237494    0.2214432    6.9749893 
H    -2.9803281    1.0715914    5.4721248 
H    -1.7459939   -0.7729325    2.6959175 
H    -0.6587973   -1.3565011    6.8321277 
H     4.1771611   -1.8607630    6.8076826 
H     3.8379592   -0.8918549    5.3572046 
H     3.4391930   -2.6353709    5.3751397 
H     2.4068978    0.7772391    6.6280765 
H     2.8847457   -0.0849906    8.1236532 
H     1.1566021    0.2135370    7.7724864 
H     0.7273416   -2.3037591    8.0810920 
H     1.5831662   -3.4859740    7.0528567 
H     2.4593803   -2.6074458    8.3403679 
H     2.4025543   -1.1197436    3.8036059 
H     3.3452522    0.4864729    2.4004183 
H     6.5776521    1.4926298    3.5259379 
H     4.9528036    0.8297202    3.8103182 
H     5.2456891    1.8882468    2.3997359 
H     8.0635893    0.6771722    1.7845777 
H     7.5845029   -0.5733384    0.6140786 
H     6.8699462    1.0591056    0.5099944 
H     6.9073687   -2.1477272    2.5395373 
H     5.7895638   -1.5804879    3.8113072 
H     7.4445643   -0.9045977    3.7068267 
H     6.0834126   -1.9870412    0.1588721 
H     1.8328347   -2.2561401   -0.5446729 
H     5.0903486   -5.3236610   -1.5640968 
H     4.1591308   -4.9960490   -0.0718640 
H     5.8103540   -4.3431214   -0.2562616 
H     2.2581184   -4.1549047   -1.5676344 
H     2.5304299   -2.7741753   -2.6752752 
H     3.2461186   -4.3722507   -3.0300613 
H     5.5045339   -3.4375829   -3.2645651 
H     4.9118259   -1.7820005   -2.9231087 
H     6.2687575   -2.4640810   -1.9831221 
H    -0.1145250    1.5531583    3.3681472 
H    -0.2423214    4.0333051    3.2726149 
H     0.4677296    5.2567563    1.2378309 
H     5.6158400    2.1762597   -1.0880575 
H     5.3366841    3.2791966    0.2756172 
H     5.6767592    4.2026903   -2.2606507 
H     3.9508168    3.8461744   -2.3887057 
H     5.3201931    5.7303103   -0.3575062 
H     4.4461768    6.2429207   -1.8028176 
H     3.1788242    4.8808613    0.6667241 
H     3.1615907    6.6036986    0.2791401 
H     1.0614825    6.0527014   -0.5468164 
H     1.9836127    5.6992604   -2.0203387 
H     4.6990360    1.2269606   -2.6177122 
H     3.3539993   -0.0764424   -4.2437539 
H     0.9471569   -0.4852322   -3.8519608 
H    -0.8557404    2.7534644   -2.8324109 
H    -1.7635707    7.3517060   -2.3939941 
H    -2.6658518    6.6531668   -1.0258181 
H    -0.9284620    6.2962513   -1.2144364 
H    -3.5061014    6.3469070   -3.9997881 
H    -4.3766358    5.5956343   -2.6332359 
H    -3.8182465    4.5847412   -3.9942112 
H    -1.0161034    5.9992947   -4.3004964 
H    -1.3220967    4.2495819   -4.4191692 
H    -0.1149279    4.8646019   -3.2514485 
H    -3.7722835    4.8662947   -0.4571926 
H    -2.7309758    0.7860635    0.5104839 
H    -5.7635191    4.3199507    0.5974979 
H    -5.8013271    4.1363999    2.3706368 
H    -4.4850600    5.0619628    1.6097816 
H    -5.9019277    1.7331244    0.3954569 
H    -5.9824958    1.6829521    2.1845575 
H    -4.7666336    0.7146325    1.3110156 
H    -4.1152142    2.6929195    3.5851007 
H    -2.7852336    3.6045747    2.8042785 
H    -2.8359932    1.8318050    2.6777011 
H    -2.8777882    1.1348960   -3.5307200 
H    -3.7524098    2.4065624   -5.0482011 
H    -5.0501363    1.4011329   -4.3354147 
H    -5.2838186    2.1789363   -5.9255111 
H    -2.8660345    0.0374187   -7.8669694 
H    -3.9478383    1.4570729   -7.9439319 
H    -2.4026123    1.5534959   -7.0441594 
H    -4.8428155   -1.3802247   -6.9425070 
H    -5.8802429    0.0640926   -7.0315083 
H    -5.7151908   -0.8192082   -5.4873890 
H    -2.8147410   -1.9764078   -6.5186015 
H    -0.3211739   -2.2965423   -3.0142031 
H    -1.2046779   -5.1499791   -6.8689771 
H    -2.7156250   -4.3351759   -6.3833344 
H    -1.5320036   -3.4944811   -7.4322607 
H    -2.0858276   -4.8483773   -3.8951984 
H    -0.4518234   -4.4241722   -3.3005065 
H    -0.6422492   -5.6776813   -4.5468961 
H     0.6958994   -2.6750809   -6.4643247 
H     1.1517384   -3.0791643   -4.7844004 
H     1.0408301   -4.3721511   -6.0109211 
