197
Energy =
C    -0.6518059   -3.1530402    1.7743550 
C    -0.6536639   -3.7157725    0.4605818 
C     0.4941087   -3.6923837   -0.3615836 
H    -1.6090049   -4.0000013    0.0007683 
Pd   -0.0736372   -1.5873975    0.3085342 
P     0.3493200   -0.2874871   -1.5767510 
P    -0.0644517    0.2687991    1.7147009 
H     0.2738883   -3.2219998    2.3605150 
H     1.4703164   -3.5256520    0.1228056 
C    -4.2174808   -2.5055167    4.1070705 
C    -4.3142295   -2.6846704    2.7167008 
C    -3.1635134   -2.8937122    1.9516590 
C    -1.8852372   -2.9437552    2.5585248 
C    -1.8037412   -2.7666854    3.9579257 
C    -2.9576089   -2.5482970    4.7207940 
H    -5.1188156   -2.3368618    4.7052195 
H    -5.2930216   -2.6571568    2.2266214 
H    -3.2590023   -3.0082099    0.8661768 
H    -0.8245006   -2.7958459    4.4476410 
H    -2.8703617   -2.4145647    5.8034401 
C     0.6877201   -5.1976701   -4.3844579 
C     1.6163477   -4.2469101   -3.9330847 
C     1.5553290   -3.7730724   -2.6196731 
C     0.5505273   -4.2244152   -1.7342313 
C    -0.3684305   -5.1936112   -2.1956321 
C    -0.2954579   -5.6784624   -3.5064243 
H     0.7362020   -5.5699579   -5.4127313 
H     2.3891783   -3.8673824   -4.6092805 
H     2.2724004   -3.0181343   -2.2812989 
H    -1.1223051   -5.5989492   -1.5130800 
H    -1.0019109   -6.4452067   -3.8405718 
C    -3.1442700    5.7922059    1.9780259 
C    -2.7286862    4.7490115    3.0474428 
C    -3.7503966    4.7525168    4.2128516 
C    -1.3440754    5.1493049    3.5988512 
C    -2.7045833    3.3503326    2.4027530 
C    -1.5462689    2.5588389    2.3690537 
C    -3.8698117    2.8297706    1.8013708 
C    -3.9198766    1.5742392    1.1663296 
C    -5.2310610    1.0736655    0.5297230 
C    -6.2012768    0.6740621    1.6718678 
C    -4.9888083   -0.1507854   -0.3804721 
C    -5.8765818    2.1893356   -0.3285251 
C    -2.7460215    0.7988108    1.1661957 
C    -1.5747163    1.2884845    1.7637474 
C     0.3185377   -0.2042126    3.4450777 
C    -0.4225884    0.2793531    4.5370899 
C    -0.0987777   -0.1119717    5.8479161 
C    -0.8507824    0.4508468    7.0703974 
C    -1.2572146   -0.6922647    8.0333746 
C     0.1004993    1.4289432    7.8095947 
C    -2.1280529    1.2148806    6.6577460 
C     0.9770463   -1.0088970    6.0266439 
C     1.7247947   -1.5269465    4.9523539 
C     1.3716413   -1.1102721    3.6549619 
C     2.9047440   -2.5006581    5.1391875 
C     3.0410704   -2.9768554    6.6002248 
C     4.2115451   -1.7736773    4.7270538 
C     2.6990928   -3.7450096    4.2372191 
C     1.2883171    1.4488158    1.2475634 
C     2.4872210    1.4677581    1.9861338 
C     3.5330387    2.3296779    1.6348966 
C     3.3820045    3.2096696    0.5610669 
C     1.1272375    2.3231041    0.1371207 
C     2.1774482    3.2233495   -0.1565891 
C    -0.1085329    2.3881015   -0.6991303 
C    -0.8412594    3.5976376   -0.7150398 
O    -0.3924241    4.6688184    0.0343985 
C     0.2445407    5.7114294   -0.7338564 
C     1.7525665    5.4762244   -0.7848572 
O     2.0271347    4.1204986   -1.1976058 
C    -2.0293432    3.7278168   -1.4484270 
C    -2.4733657    2.6631019   -2.2366403 
C    -1.7374380    1.4736328   -2.2850539 
C    -0.5633308    1.3220218   -1.5215367 
C     2.0917152    0.1583828   -1.8793635 
C     2.4363110    1.1974093   -2.7669844 
C     3.7827398    1.5109805   -2.9979435 
C     4.2093407    2.6392690   -3.9559866 
C     5.0222604    3.6953178   -3.1634733 
C     2.9926783    3.3456671   -4.5908944 
C     5.0815662    2.0392301   -5.0882134 
C     4.7656198    0.7584225   -2.3116837 
C     4.4510153   -0.2734980   -1.4115274 
C     3.0865857   -0.5583782   -1.2031481 
C     5.5149009   -1.1052466   -0.6687117 
C     5.2515688   -1.0395023    0.8572090 
C     6.9458129   -0.5978851   -0.9399981 
C     5.4109940   -2.5783408   -1.1437341 
C    -0.2916727   -1.0784766   -3.0983481 
C    -1.4933177   -1.7981925   -2.9754064 
C    -2.1314233   -2.3305920   -4.1084423 
C    -3.5161943   -3.0005700   -4.0121091 
C    -3.8275740   -3.4676338   -2.5720112 
C    -3.6071800   -4.2275882   -4.9501740 
C    -4.5761203   -1.9480562   -4.4339672 
C    -1.4940480   -2.1544011   -5.3526308 
C    -0.2676454   -1.4742065   -5.5018674 
C     0.3243424   -0.9264356   -4.3507621 
C     0.3677215   -1.3292517   -6.8988684 
C     1.7280692   -0.6010999   -6.8429041 
C     0.5914402   -2.7336358   -7.5155230 
C    -0.5909653   -0.5123534   -7.8034990 
H    -3.1633598    6.8044148    2.4202007 
H    -2.4229746    5.7842199    1.1433025 
H    -4.1497684    5.5852730    1.5721490 
H    -3.7840734    5.7486656    4.6890662 
H    -4.7693207    4.5114716    3.8632306 
H    -3.4708138    4.0107876    4.9819239 
H    -1.3981420    6.1596010    4.0400454 
H    -0.5854280    5.1656084    2.7971133 
H    -1.0040310    4.4587438    4.3916362 
H    -0.6068585    2.9281166    2.7866787 
H    -4.7779594    3.4406366    1.8184776 
H    -7.1515888    0.2920294    1.2569180 
H    -5.7541352   -0.1103704    2.3063125 
H    -6.4322900    1.5406034    2.3158575 
H    -5.9330392   -0.4499342   -0.8674135 
H    -4.6225190   -1.0193205    0.1917593 
H    -4.2531916    0.0774588   -1.1722702 
H    -6.1543206    3.0701096    0.2747534 
H    -6.7988740    1.8130489   -0.8051119 
H    -5.1862322    2.5225141   -1.1220391 
H    -2.7187394   -0.1849103    0.6894811 
H    -1.2587011    0.9555591    4.3544636 
H    -1.9265493   -1.4130312    7.5329921 
H    -1.7918773   -0.2776884    8.9057639 
H    -0.3830790   -1.2468516    8.4146658 
H     0.4033784    2.2570397    7.1449019 
H     1.0155265    0.9155973    8.1534780 
H    -0.4030156    1.8593845    8.6936578 
H    -2.6564146    1.5679530    7.5598944 
H    -1.8975931    2.1024518    6.0426198 
H    -2.8200354    0.5700910    6.0872250 
H     1.2354210   -1.3133473    7.0433397 
H     1.9223397   -1.4960050    2.7885962 
H     3.2516635   -2.1384016    7.2867752 
H     3.8800133   -3.6890808    6.6821057 
H     2.1272262   -3.4906325    6.9472046 
H     4.1732742   -1.4396662    3.6755144 
H     4.3811738   -0.8861031    5.3612088 
H     5.0793088   -2.4484768    4.8371025 
H     1.7496677   -4.2551714    4.4780559 
H     2.6852500   -3.4793777    3.1649421 
H     3.5235105   -4.4643243    4.3856382 
H     2.6056733    0.8155067    2.8542347 
H     4.4622489    2.3219446    2.2136297 
H     4.1800184    3.8995795    0.2717330 
H    -0.1823909    5.7322431   -1.7529532 
H     0.0208857    6.6690033   -0.2326487 
H     2.2105991    5.6604924    0.2038653 
H     2.2222757    6.1445380   -1.5270292 
H    -2.5840215    4.6691519   -1.3958033 
H    -3.3888590    2.7607964   -2.8285376 
H    -2.0750123    0.6598829   -2.9316630 
H     1.6403991    1.7719315   -3.2461243 
H     5.9250887    3.2580189   -2.7029721 
H     4.3976806    4.1299650   -2.3646055 
H     5.3484386    4.5081345   -3.8367078 
H     2.3870764    2.6491179   -5.1980242 
H     2.3453249    3.7959167   -3.8188302 
H     3.3407886    4.1515852   -5.2599042 
H     5.9935777    1.5593883   -4.6927257 
H     5.3958350    2.8329027   -5.7892585 
H     4.5154666    1.2800187   -5.6567859 
H     5.8162915    1.0024523   -2.4871913 
H     2.7834944   -1.3349899   -0.4920099 
H     5.9951200   -1.6489446    1.4007139 
H     5.3167771   -0.0012480    1.2234876 
H     4.2493536   -1.4236877    1.1164483 
H     7.2097412   -0.6703506   -2.0095680 
H     7.6711245   -1.2100629   -0.3769251 
H     7.0718924    0.4517854   -0.6205662 
H     6.1721526   -3.1998305   -0.6392658 
H     4.4199286   -3.0095404   -0.9157209 
H     5.5703489   -2.6522714   -2.2336378 
H    -1.9342412   -1.9172129   -1.9799530 
H    -3.0531165   -4.1630924   -2.2047353 
H    -4.7976613   -3.9930976   -2.5516658 
H    -3.9006834   -2.6206226   -1.8679049 
H    -2.8195443   -4.9624237   -4.7131661 
H    -4.5890592   -4.7185009   -4.8338994 
H    -3.5066651   -3.9468184   -6.0122073 
H    -4.5430801   -1.0699468   -3.7642293 
H    -5.5917348   -2.3809314   -4.3865119 
H    -4.3976371   -1.5980564   -5.4656600 
H    -1.9738573   -2.5631540   -6.2469069 
H     1.2698642   -0.3859671   -4.4183627 
H     2.1550620   -0.5340563   -7.8581858 
H     2.4545423   -1.1389849   -6.2077954 
H     1.6275680    0.4284768   -6.4559851 
H    -0.3527668   -3.2974127   -7.6070737 
H     1.0274201   -2.6405977   -8.5259520 
H     1.2831845   -3.3279302   -6.8944918 
H    -0.1562035   -0.3922310   -8.8118068 
H    -0.7672119    0.4920232   -7.3799729 
H    -1.5689601   -1.0116413   -7.9151720 
