206
Energy =
C    -0.6222927   -3.7459891    0.7042197 
C    -1.9799794   -3.3645473    0.5985136 
C    -2.4820801   -2.8739233   -0.6509483 
H    -2.5930834   -3.2830006    1.5046844 
Pd   -0.8295401   -1.5790531    0.0462547 
P    -0.8750694    0.1367782   -1.5270839 
P     0.7905554   -0.5654897    1.3729190 
H    -0.1047869   -3.9671458   -0.2432132 
H    -2.0492983   -3.3002881   -1.5653360 
C     1.6202565   -5.0519699    4.1242592 
C     2.2272613   -4.9366069    2.8648263 
C     1.4739349   -4.5162093    1.7653915 
C     0.1023029   -4.1953437    1.8992617 
C    -0.4926807   -4.3107855    3.1762597 
C     0.2604854   -4.7344431    4.2752264 
H     2.2040553   -5.3922724    4.9854104 
H     3.2878317   -5.1776335    2.7377137 
H     1.9508980   -4.4252894    0.7847767 
H    -1.5515478   -4.0742432    3.3121092 
H    -0.2149592   -4.8153308    5.2576748 
C    -6.3502134   -1.0680067   -1.2188263 
C    -5.7564594   -1.0585233    0.0551476 
C    -4.5024005   -1.6441172    0.2533170 
C    -3.8106416   -2.2564046   -0.8191456 
C    -4.4140382   -2.2478570   -2.0964753 
C    -5.6728748   -1.6669831   -2.2909887 
H    -7.3331557   -0.6106895   -1.3718279 
H    -6.2757071   -0.5897127    0.8978836 
H    -4.0455693   -1.6107202    1.2481127 
H    -3.8853608   -2.6993571   -2.9426628 
H    -6.1270463   -1.6870320   -3.2869073 
C    -2.7893523   -2.6411085    6.3424333 
C    -2.5869496   -1.4209886    5.4097267 
C    -3.6023472   -1.5358597    4.2529238 
C    -2.8689585   -0.1128232    6.1936634 
C    -1.1339384   -1.3729282    4.8967968 
C    -0.8208372   -1.1096727    3.5528899 
C    -0.0594438   -1.5661841    5.7880651 
C     1.2882168   -1.5579055    5.3811227 
C     2.4151570   -1.7473338    6.4157545 
C     2.5340382   -0.4345035    7.2346192 
C     2.0919152   -2.9186252    7.3756014 
C     3.7718217   -2.0360165    5.7365072 
C     1.5640604   -1.3065641    4.0234246 
C     0.5205988   -1.0514564    3.1218624 
C     2.5188866   -0.9228330    0.9109713 
C     3.6083274   -0.3076689    1.5522586 
C     4.9243144   -0.6650683    1.2073240 
C     6.1493639   -0.0934304    1.9483815 
C     6.7677837   -1.2286197    2.8066632 
C     5.7619717    1.0786383    2.8755366 
C     7.2065014    0.4147650    0.9370480 
C     5.0998519   -1.6152457    0.1800537 
C     4.0273714   -2.2032039   -0.5203153 
C     2.7285632   -1.8456029   -0.1275860 
C     4.2905438   -3.2183460   -1.6492198 
C     5.2818489   -2.6154805   -2.6760867 
C     4.8999699   -4.5031443   -1.0312166 
C     2.9913219   -3.5912569   -2.3972270 
C     0.6356063    1.2718146    1.4003647 
C     0.1050493    1.9310289    2.5275457 
C    -0.0636765    3.3191843    2.5047390 
C     0.3018589    4.0670060    1.3804950 
C     0.9955726    2.0060199    0.2456528 
C     0.8415892    3.4169689    0.2562128 
C     1.5981541    1.3917077   -0.9770737 
C     2.9616280    1.6844530   -1.2419757 
O     3.5950150    2.4345822   -0.2951439 
C     4.7904588    3.1473364   -0.6637516 
C     4.5071235    4.3312226   -1.6029684 
C     4.1660247    5.6574323   -0.8992868 
C     2.8918322    5.6955319   -0.0358050 
C     1.5770766    5.4583334   -0.7978432 
O     1.2279130    4.0631722   -0.8823395 
C     3.5837318    1.2012687   -2.4070755 
C     2.8445072    0.4429791   -3.3207249 
C     1.4970255    0.1502896   -3.0859637 
C     0.8694632    0.6171547   -1.9134542 
C    -1.7413546    1.6934267   -1.1431436 
C    -1.5997785    2.7988578   -2.0022496 
C    -2.3442743    3.9682124   -1.7772515 
C    -2.3033050    5.1650714   -2.7475583 
C    -3.6603461    5.2280333   -3.4969958 
C    -1.1696937    5.0200038   -3.7854758 
C    -2.0887267    6.4853909   -1.9672471 
C    -3.1855897    3.9979845   -0.6459532 
C    -3.3094653    2.9233158    0.2566208 
C    -2.5832132    1.7518741   -0.0217551 
C    -4.2437665    3.0432798    1.4755656 
C    -5.7102974    3.0665472    0.9719755 
C    -4.0686059    1.8542569    2.4431141 
C    -3.9359585    4.3478112    2.2520965 
C    -1.5839527   -0.4639475   -3.1107212 
C    -1.1556021   -1.7175823   -3.5864159 
C    -1.6849771   -2.2659155   -4.7669107 
C    -1.1615577   -3.6271266   -5.2679213 
C    -1.2721614   -4.6791844   -4.1344389 
C    -1.9528118   -4.1425593   -6.4879055 
C     0.3269925   -3.4625963   -5.6723485 
C    -2.6712220   -1.5229803   -5.4504280 
C    -3.1270563   -0.2695517   -4.9961322 
C    -2.5709097    0.2460749   -3.8096520 
C    -4.1466991    0.5775169   -5.7841618 
C    -4.9057227   -0.2599107   -6.8355760 
C    -3.3606381    1.7044748   -6.5071131 
C    -5.1853090    1.2197069   -4.8310507 
H    -2.5567934   -3.5836116    5.8155662 
H    -2.1554540   -2.5880140    7.2434107 
H    -3.8392053   -2.6878784    6.6808459 
H    -3.4235508   -2.4444295    3.6501961 
H    -3.5677018   -0.6618358    3.5830157 
H    -4.6266298   -1.5999654    4.6579327 
H    -3.8999562   -0.1135735    6.5910488 
H    -2.1730234   -0.0008574    7.0431846 
H    -2.7512583    0.7676872    5.5372951 
H    -1.6156233   -0.9384630    2.8183277 
H    -0.2835597   -1.7439776    6.8437356 
H     3.3343875   -0.5228875    7.9912137 
H     1.5895222   -0.2057245    7.7586430 
H     2.7724344    0.4181571    6.5745305 
H     1.1757814   -2.7355020    7.9622451 
H     2.9190686   -3.0557449    8.0939433 
H     1.9585930   -3.8610616    6.8186441 
H     3.7148524   -2.9218491    5.0796318 
H     4.1178104   -1.1802525    5.1313119 
H     4.5412038   -2.2257973    6.5044947 
H     2.5935467   -1.3039557    3.6627083 
H     3.4177197    0.4550307    2.3104901 
H     7.6463877   -0.8558052    3.3633012 
H     7.0962797   -2.0733587    2.1762228 
H     6.0333596   -1.6139533    3.5350950 
H     6.6675087    1.4958301    3.3485785 
H     5.2622141    1.8876998    2.3143912 
H     5.0864683    0.7553391    3.6870156 
H     6.7892692    1.2112018    0.2983198 
H     7.5737027   -0.3918749    0.2801775 
H     8.0784426    0.8260865    1.4753715 
H     6.1201977   -1.9044968   -0.0918213 
H     1.8522610   -2.2603984   -0.6331886 
H     5.4625922   -3.3315108   -3.4972632 
H     6.2577741   -2.3824341   -2.2171208 
H     4.8755897   -1.6847484   -3.1072422 
H     5.8491226   -4.2871127   -0.5108062 
H     4.2071949   -4.9546904   -0.2987382 
H     5.1049568   -5.2509201   -1.8181523 
H     3.2213948   -4.2800447   -3.2281083 
H     2.2669117   -4.1042349   -1.7387918 
H     2.5018040   -2.6963134   -2.8198578 
H    -0.1605054    1.3650097    3.4236171 
H    -0.4730219    3.8304817    3.3821309 
H     0.1697900    5.1511930    1.3860145 
H     5.5201467    2.4472492   -1.1091970 
H     5.2109206    3.4866281    0.2970476 
H     5.4071301    4.4965393   -2.2235481 
H     3.7030661    4.0368012   -2.3033683 
H     5.0233890    5.9451690   -0.2606950 
H     4.0892096    6.4470244   -1.6714224 
H     2.9523345    4.9640859    0.7917513 
H     2.8341675    6.6914445    0.4408132 
H     0.7443116    6.0255522   -0.3445047 
H     1.6544693    5.7823938   -1.8485407 
H     4.6342159    1.4198926   -2.6107701 
H     3.3246113    0.0841134   -4.2370317 
H     0.9314383   -0.4200100   -3.8264837 
H    -0.9074987    2.7294494   -2.8444799 
H    -3.6708862    6.0768527   -4.2040746 
H    -3.8350681    4.3000283   -4.0690950 
H    -4.5018715    5.3574369   -2.7941134 
H    -1.1313954    5.9185041   -4.4251477 
H    -1.3297599    4.1510581   -4.4478479 
H    -0.1881340    4.9009535   -3.2949382 
H    -2.0480583    7.3380135   -2.6678000 
H    -1.1418190    6.4582618   -1.4021127 
H    -2.9059464    6.6828540   -1.2528230 
H    -3.7730717    4.9026292   -0.4593237 
H    -2.6521039    0.8739303    0.6257338 
H    -5.9433056    2.1447932    0.4105397 
H    -6.4098919    3.1447244    1.8237827 
H    -5.8904428    3.9262698    0.3032226 
H    -4.3501371    0.9008393    1.9656814 
H    -4.7174029    1.9878491    3.3260403 
H    -3.0248237    1.7726247    2.7955919 
H    -4.5886114    4.4241287    3.1398049 
H    -4.1082719    5.2467028    1.6360318 
H    -2.8852494    4.3610249    2.5894666 
H    -0.3996728   -2.2720721   -3.0175803 
H    -2.3171074   -4.7860908   -3.7935058 
H    -0.6501395   -4.4106441   -3.2618752 
H    -0.9255437   -5.6643430   -4.4929189 
H    -1.8635070   -3.4610537   -7.3517640 
H    -1.5574570   -5.1246705   -6.7991196 
H    -3.0245288   -4.2696537   -6.2537487 
H     0.4328729   -2.7165982   -6.4792948 
H     0.7366687   -4.4231625   -6.0328861 
H     0.9425270   -3.1311530   -4.8176460 
H    -3.0965800   -1.9350047   -6.3661070 
H    -2.9129787    1.2081168   -3.4229307 
H    -5.6559454    0.3707325   -7.3428057 
H    -4.2322771   -0.6571144   -7.6148144 
H    -5.4353070   -1.1093987   -6.3683489 
H    -2.6145923    1.2811539   -7.2020785 
H    -2.8259940    2.3416070   -5.7802484 
H    -4.0501322    2.3457484   -7.0852178 
H    -5.7365436    0.4511144   -4.2645416 
H    -4.7175088    1.9032042   -4.1022910 
H    -5.9131201    1.8097168   -5.4151206 
