197
Energy =
C    -1.5966283    2.5337932    2.2264585 
C    -2.7759477    1.7792699    1.9494400 
C    -2.8971316    0.4372410    2.3763214 
H    -3.5244131    2.1860228    1.2565476 
Pd   -1.0664614    0.7195588    1.0410375 
P    -0.9893308   -1.3183455   -0.0996522 
P     1.1093183    1.2498924    0.4123790 
H    -1.0625704    2.2990334    3.1579130 
H    -2.2176213    0.1012667    3.1762713 
C    -0.8597396    6.5086446    0.7435984 
C    -1.6285800    5.6129299   -0.0182893 
C    -1.8676984    4.3157334    0.4464442 
C    -1.3522601    3.8878454    1.6917450 
C    -0.5809434    4.7994599    2.4443761 
C    -0.3350528    6.0949013    1.9763259 
H    -0.6699909    7.5215120    0.3737284 
H    -2.0377045    5.9283947   -0.9831940 
H    -2.4482314    3.6189850   -0.1696133 
H    -0.1723410    4.4841469    3.4079658 
H     0.2694293    6.7807823    2.5789628 
C    -6.2846064   -2.1352839    1.7572628 
C    -5.0359337   -2.6695264    2.1105180 
C    -3.9425082   -1.8238657    2.3164863 
C    -4.0686209   -0.4254108    2.1534621 
C    -5.3340711    0.1013381    1.8095889 
C    -6.4313608   -0.7461853    1.6218926 
H    -7.1420707   -2.7970607    1.5987181 
H    -4.9116946   -3.7513153    2.2233904 
H    -2.9678214   -2.2496931    2.5774549 
H    -5.4711084    1.1841229    1.7248689 
H    -7.4103021   -0.3191459    1.3816029 
C    -0.9621343   -3.0797401    5.1651968 
C     0.4633302   -3.3143420    4.6007408 
C     1.0898557   -4.5199522    5.3303913 
C     1.3377002   -2.0638440    4.8753859 
C     0.3634587   -3.5408943    3.0796409 
C    -0.1600502   -2.5157891    2.2666919 
C     0.7629879   -4.7286299    2.4446347 
C     0.6689869   -4.9248244    1.0460376 
C     1.1460000   -6.2506256    0.4236104 
C     0.9856368   -6.2564241   -1.1114631 
C     2.6473459   -6.4534563    0.7537468 
C     0.3114342   -7.4156180    1.0145282 
C     0.1427270   -3.8827189    0.2702605 
C    -0.2821077   -2.6861235    0.8822886 
C    -2.6376152   -1.8534809   -0.6906474 
C    -3.0055151   -3.2058379   -0.7729617 
C    -4.2319885   -3.5724316   -1.3530935 
C    -4.6742499   -5.0439865   -1.4751264 
C    -3.6771385   -6.0058140   -0.7935692 
C    -4.7668987   -5.4137348   -2.9784362 
C    -6.0619088   -5.2286750   -0.8099256 
C    -5.0549399   -2.5445824   -1.8570922 
C    -4.7183507   -1.1786043   -1.7790501 
C    -3.4992042   -0.8475969   -1.1625369 
C    -5.6150504   -0.1068556   -2.4293749 
C    -5.2729763    1.3123877   -1.9224930 
C    -7.1094240   -0.3799683   -2.1342569 
C    -5.3757422   -0.1628321   -3.9619424 
C     0.0114283   -1.3029745   -1.6570363 
C    -0.6506034   -1.3313682   -2.8996735 
C     0.0745291   -1.3282736   -4.0969264 
C     1.4702507   -1.3171298   -4.0667844 
C     1.4316590   -1.2757282   -1.6078014 
C     2.1368145   -1.3168515   -2.8329523 
C     2.2212953   -1.2818352   -0.3400917 
C     3.0823543   -2.3820410   -0.1101596 
O     3.1527156   -3.3940977   -1.0492769 
C     4.3547195   -3.3894322   -1.8483954 
C     4.1157779   -2.5993440   -3.1338509 
O     3.5190640   -1.3246236   -2.8177166 
C     3.8457012   -2.4918608    1.0603010 
C     3.8130095   -1.4604492    2.0006821 
C     3.0136488   -0.3342431    1.7745135 
C     2.2085326   -0.2333393    0.6228047 
C     1.3556947    1.7819774   -1.3163882 
C     2.6567830    1.8014573   -1.8605044 
C     2.8659734    2.2367769   -3.1750872 
C     4.2669955    2.2847442   -3.8136005 
C     5.3578213    1.7774184   -2.8467400 
C     4.2829562    1.3832768   -5.0747917 
C     4.5910660    3.7489694   -4.2064328 
C     1.7347437    2.6387303   -3.9241144 
C     0.4266290    2.6191841   -3.4126349 
C     0.2540087    2.1832701   -2.0811433 
C    -0.8015865    3.0525218   -4.2387440 
C    -0.4176600    3.5194336   -5.6577426 
C    -1.5127723    4.2210077   -3.5114834 
C    -1.7829685    1.8600331   -4.3634403 
C     1.8803852    2.5534536    1.4509862 
C     1.7727663    2.4457604    2.8549915 
C     2.3801345    3.3884358    3.6961672 
C     2.3310931    3.2740769    5.2327450 
C     1.7995038    4.5937212    5.8477844 
C     1.4174542    2.1205941    5.6989121 
C     3.7681314    3.0049674    5.7506293 
C     3.0730321    4.4627320    3.0897027 
C     3.1641021    4.6186649    1.6977149 
C     2.5530172    3.6411001    0.8834569 
C     3.9300524    5.7748130    1.0252074 
C     4.4710212    6.7902424    2.0523846 
C     2.9919802    6.5211190    0.0425973 
C     5.1264989    5.1785332    0.2369831 
H    -0.9222017   -2.9255544    6.2581821 
H    -1.4355991   -2.1875873    4.7180991 
H    -1.6137443   -3.9473127    4.9616034 
H     1.1492643   -4.3107651    6.4123834 
H     0.4855297   -5.4348701    5.2007840 
H     2.1139987   -4.7252017    4.9719197 
H     1.4013792   -1.8721562    5.9613360 
H     0.9210273   -1.1602271    4.3967466 
H     2.3596417   -2.2078640    4.4855348 
H    -0.4615866   -1.5588952    2.7070243 
H     1.1772450   -5.5375574    3.0515338 
H     1.5685590   -5.4427843   -1.5761788 
H     1.3495628   -7.2159813   -1.5177232 
H    -0.0720380   -6.1493720   -1.4121167 
H     3.0070073   -7.4041330    0.3212421 
H     2.8275038   -6.4905966    1.8421053 
H     3.2413796   -5.6264037    0.3292559 
H    -0.7618289   -7.2802355    0.7910610 
H     0.6366864   -8.3772449    0.5790720 
H     0.4253209   -7.4867054    2.1101645 
H     0.0850252   -3.9728707   -0.8167365 
H    -2.3320426   -3.9672910   -0.3764704 
H    -4.0409252   -7.0436070   -0.8844819 
H    -3.5634754   -5.7821223    0.2823000 
H    -2.6780251   -5.9623299   -1.2622302 
H    -5.5000080   -4.7805763   -3.5076165 
H    -5.0815825   -6.4661163   -3.0956368 
H    -3.7877096   -5.2876080   -3.4729938 
H    -6.3932774   -6.2777854   -0.9062601 
H    -6.8305220   -4.5897302   -1.2774409 
H    -6.0184862   -4.9778671    0.2636589 
H    -6.0001541   -2.8219124   -2.3335973 
H    -3.1907473    0.1980125   -1.0602756 
H    -5.9743077    2.0433790   -2.3600157 
H    -5.3559445    1.3732239   -0.8232482 
H    -4.2545912    1.6233655   -2.2138089 
H    -7.2976010   -0.4015668   -1.0481621 
H    -7.7328272    0.4141765   -2.5809871 
H    -7.4478912   -1.3395541   -2.5602004 
H    -4.3155975    0.0337604   -4.2002833 
H    -5.9934454    0.5944069   -4.4778187 
H    -5.6381085   -1.1556110   -4.3673814 
H    -1.7418937   -1.3662660   -2.9352219 
H    -0.4544932   -1.3450919   -5.0549998 
H     2.0595367   -1.3153615   -4.9884437 
H     4.5987483   -4.4409265   -2.0779587 
H     5.1833988   -2.9479742   -1.2656953 
H     5.0708385   -2.3947652   -3.6472510 
H     3.4530793   -3.1582157   -3.8192410 
H     4.4643114   -3.3817026    1.2089350 
H     4.4208004   -1.5229360    2.9089698 
H     3.0329698    0.4811080    2.5003031 
H     3.4927479    1.4540438   -1.2488347 
H     5.4228557    2.4022969   -1.9382971 
H     6.3413625    1.8164092   -3.3461727 
H     5.1671049    0.7333013   -2.5445472 
H     5.2763458    1.4208669   -5.5564305 
H     3.5359074    1.7053024   -5.8208800 
H     4.0690831    0.3381986   -4.7937496 
H     4.5769927    4.4048015   -3.3177572 
H     5.5947286    3.8084410   -4.6637780 
H     3.8644536    4.1478756   -4.9354058 
H     1.8926637    2.9734038   -4.9521763 
H    -0.7439020    2.1406717   -1.6307197 
H    -1.3267634    3.8146060   -6.2096324 
H     0.2560651    4.3938593   -5.6318123 
H     0.0754626    2.7161857   -6.2330765 
H    -0.8262206    5.0731850   -3.3673608 
H    -2.3805906    4.5673609   -4.1007678 
H    -1.8801021    3.9104325   -2.5195638 
H    -1.3226945    1.0317580   -4.9267871 
H    -2.7009952    2.1729126   -4.8922123 
H    -2.0766676    1.4673768   -3.3747173 
H     1.2076192    1.6108837    3.2792018 
H     0.7743128    4.8108055    5.4990855 
H     1.7749203    4.5160093    6.9490014 
H     2.4370529    5.4558462    5.5887546 
H     0.3786128    2.2547068    5.3453121 
H     1.3909805    2.0889151    6.8015847 
H     1.7801104    1.1381836    5.3486121 
H     4.4567515    3.8209868    5.4716123 
H     3.7703243    2.9189050    6.8520207 
H     4.1657761    2.0651496    5.3283809 
H     3.5517003    5.2011115    3.7373620 
H     2.6064255    3.7323955   -0.2041475 
H     5.1906033    6.3263626    2.7498319 
H     3.6553893    7.2441099    2.6430501 
H     4.9975933    7.6054142    1.5270865 
H     2.1299062    6.9557527    0.5754040 
H     3.5421167    7.3383593   -0.4566420 
H     2.5992294    5.8512591   -0.7418636 
H     4.7849773    4.4789314   -0.5458964 
H     5.6993620    5.9843638   -0.2557279 
H     5.8083142    4.6305917    0.9106690 
