206
Energy =
C    -0.6132622   -3.7662297    0.5719272 
C    -1.9641751   -3.3514804    0.5325699 
C    -2.5067109   -2.7920427   -0.6696174 
H    -2.5424542   -3.3018570    1.4635300 
Pd   -0.7995662   -1.5635351    0.0156805 
P    -0.9065344    0.2233684   -1.4716858 
P     0.9160363   -0.6430472    1.3023517 
H    -0.1302381   -3.9512604   -0.4008966 
H    -2.1238633   -3.1835925   -1.6218587 
C     1.6474070   -5.3651271    3.8523484 
C     0.3065272   -5.0012161    4.0537358 
C    -0.4476475   -4.4755837    3.0009424 
C     0.1269169   -4.3003499    1.7215454 
C     1.4837507   -4.6585818    1.5391007 
C     2.2377633   -5.1832508    2.5924334 
H     2.2274291   -5.7955992    4.6747313 
H    -0.1547677   -5.1320977    5.0375177 
H    -1.4940965   -4.2101730    3.1734742 
H     1.9473091   -4.5171046    0.5576400 
H     3.2856262   -5.4555621    2.4289902 
C    -6.3785074   -0.9248263   -0.9519334 
C    -5.6993655   -0.9427858    0.2785540 
C    -4.4429206   -1.5472003    0.3813466 
C    -3.8336909   -2.1507329   -0.7444627 
C    -4.5217809   -2.1134739   -1.9770071 
C    -5.7833408   -1.5145421   -2.0765458 
H    -7.3632333   -0.4527721   -1.0308484 
H    -6.1531200   -0.4806583    1.1618114 
H    -3.9179112   -1.5357040    1.3422257 
H    -4.0593424   -2.5579811   -2.8637941 
H    -6.3033468   -1.5124365   -3.0400312 
C    -2.6021579   -0.4080092    6.2652987 
C    -2.3446160   -1.6684739    5.3984343 
C    -2.5205188   -2.9401486    6.2654881 
C    -3.3957412   -1.7152154    4.2702362 
C    -0.9071218   -1.5877355    4.8468056 
C    -0.6301892   -1.2794876    3.5070171 
C     0.1908978   -1.7892732    5.7124048 
C     1.5260053   -1.7222857    5.2816499 
C     2.7173605   -1.8721097    6.2488577 
C     3.7422924   -2.8890599    5.6904438 
C     3.3924949   -0.4815245    6.3893606 
C     2.2777704   -2.3491378    7.6489572 
C     1.7659044   -1.4324823    3.9208754 
C     0.7019444   -1.1872372    3.0449969 
C     2.6089869   -1.0413182    0.7415975 
C     3.7591757   -0.5253612    1.3579198 
C     5.0407996   -0.9451308    0.9410902 
C     6.2904973   -0.4472723    1.6963493 
C     6.1614847   -0.8396007    3.1903612 
C     6.3913971    1.0926110    1.5733606 
C     7.5928434   -1.0653625    1.1461701 
C     5.1178874   -1.8340526   -0.1457769 
C     3.9790966   -2.3181100   -0.8278310 
C     2.7232370   -1.9185528   -0.3543976 
C     4.1390334   -3.2735407   -2.0254836 
C     2.7862018   -3.5635727   -2.7104787 
C     5.0858220   -2.6382486   -3.0750424 
C     4.7420282   -4.6107367   -1.5230934 
C     0.8173971    1.1952138    1.4087656 
C     0.3771062    1.8155170    2.5956566 
C     0.2368077    3.2061375    2.6421143 
C     0.5352747    3.9939579    1.5255096 
C     1.1129185    1.9710375    0.2625944 
C     0.9798330    3.3824062    0.3396164 
C     1.6239501    1.4013951   -1.0224452 
C     2.9698775    1.6916232   -1.3685171 
O     3.6745592    2.4093550   -0.4472638 
C     4.8259747    3.1540604   -0.8895073 
C     4.4562934    4.3473802   -1.7869740 
C     4.1890574    5.6647316   -1.0360780 
C     3.0018965    5.6897046   -0.0561786 
C     1.6249125    5.4627663   -0.6999525 
O     1.2844848    4.0670793   -0.8008667 
C     3.5071501    1.2440752   -2.5890103 
C     2.6996162    0.5301371   -3.4800923 
C     1.3644451    0.2509798   -3.1703801 
C     0.8227056    0.6797040   -1.9420067 
C    -1.7080323    1.7787436   -0.9578501 
C    -2.4731565    1.7997764    0.2186013 
C    -3.1628746    2.9665491    0.5929463 
C    -4.0126070    3.0477639    1.8751683 
C    -5.5073864    3.1398037    1.4727451 
C    -3.6126568    4.3001744    2.6944513 
C    -3.8142531    1.8044099    2.7660780 
C    -3.0853618    4.0761812   -0.2714119 
C    -2.3228334    4.0843427   -1.4573434 
C    -1.6082708    2.9182438   -1.7779991 
C    -2.3409989    5.3172157   -2.3825651 
C    -2.0581078    6.6063832   -1.5725521 
C    -1.2897579    5.2034470   -3.5072555 
C    -3.7492879    5.4186886   -3.0262786 
C    -1.7367531   -0.2776087   -3.0327918 
C    -1.3799961   -1.5203332   -3.6015941 
C    -2.0205877   -1.9937769   -4.7547085 
C    -1.6773584   -3.3559270   -5.3886603 
C    -1.2634910   -3.1463573   -6.8676919 
C    -0.5164589   -4.0605018   -4.6556951 
C    -2.9274574   -4.2709899   -5.3211382 
C    -3.0357513   -1.1877456   -5.3233445 
C    -3.4161946    0.0497280   -4.7804182 
C    -2.7525703    0.4891548   -3.6148491 
C    -4.4693777    0.9636360   -5.4379557 
C    -3.7132627    2.1297686   -6.1297196 
C    -5.4323130    1.5467596   -4.3734801 
C    -5.3086796    0.2139041   -6.4938977 
H    -1.8839286   -0.3453306    7.1012298 
H    -2.5008019    0.5090625    5.6583843 
H    -3.6219704   -0.4320958    6.6898921 
H    -1.8480436   -2.9462883    7.1396078 
H    -2.3217829   -3.8515308    5.6745212 
H    -3.5557233   -2.9979196    6.6449382 
H    -4.4077553   -1.7926514    4.7027419 
H    -3.3723650   -0.8074981    3.6466432 
H    -3.2451382   -2.5921297    3.6156276 
H    -1.4435403   -1.0993105    2.7951876 
H    -0.0123793   -2.0077135    6.7629509 
H     4.6182684   -2.9482134    6.3602720 
H     4.1053216   -2.6065531    4.6887008 
H     3.2942497   -3.8931520    5.6162147 
H     3.7543492   -0.1108801    5.4146841 
H     4.2571435   -0.5409020    7.0745227 
H     2.6807288    0.2606589    6.7912382 
H     1.6100702   -1.6218515    8.1432103 
H     1.7585413   -3.3228640    7.6005940 
H     3.1648967   -2.4718322    8.2937666 
H     2.7921796   -1.3848989    3.5492008 
H     3.6551508    0.2077734    2.1642068 
H     7.0547760   -0.5122708    3.7512834 
H     6.0656741   -1.9336548    3.3018872 
H     5.2816854   -0.3695607    3.6615016 
H     7.2331864    1.4703238    2.1807342 
H     6.5693847    1.3804622    0.5240736 
H     5.4689394    1.5939820    1.9125439 
H     7.7570103   -0.8003211    0.0867121 
H     7.5925670   -2.1661093    1.2342806 
H     8.4544585   -0.6845761    1.7211593 
H     6.1022486   -2.1638472   -0.4865057 
H     1.8036122   -2.2629620   -0.8354795 
H     2.9418094   -4.2174642   -3.5856038 
H     2.3054380   -2.6329348   -3.0596354 
H     2.0829703   -4.0839310   -2.0352957 
H     4.6833915   -1.6725466   -3.4256340 
H     6.0939281   -2.4597447   -2.6635308 
H     5.1949594   -3.3089777   -3.9457286 
H     4.8727815   -5.3148055   -2.3643026 
H     5.7284034   -4.4568000   -1.0522756 
H     4.0800814   -5.0850719   -0.7766416 
H     0.1581299    1.2159853    3.4825622 
H    -0.0992345    3.6871759    3.5664862 
H     0.4228327    5.0786881    1.5843205 
H     5.5380976    2.4751679   -1.3934549 
H     5.3040778    3.4897513    0.0442992 
H     5.2929771    4.5190893   -2.4889792 
H     3.5877148    4.0642205   -2.4103032 
H     5.1040257    5.9416892   -0.4777141 
H     4.0409128    6.4659730   -1.7855661 
H     3.1371774    4.9452418    0.7507854 
H     2.9881329    6.6783219    0.4387062 
H     0.8319789    6.0030787   -0.1525351 
H     1.6029574    5.8238495   -1.7410748 
H     4.5449179    1.4595551   -2.8527950 
H     3.1146139    0.1990036   -4.4377008 
H     0.7406221   -0.2782086   -3.8944045 
H    -2.5123687    0.8958213    0.8317991 
H    -6.1469320    3.1900395    2.3724758 
H    -5.7046468    4.0396531    0.8645513 
H    -5.8055153    2.2573651    0.8797302 
H    -4.2067140    4.3516946    3.6241238 
H    -3.7904169    5.2341401    2.1346314 
H    -2.5435294    4.2623796    2.9652134 
H    -4.4022742    1.9071017    3.6945705 
H    -2.7538223    1.6736883    3.0462478 
H    -4.1552920    0.8873475    2.2572182 
H    -3.6483797    4.9778633   -0.0096962 
H    -0.9753338    2.8765802   -2.6674855 
H    -1.0726488    6.5538497   -1.0801967 
H    -2.0621888    7.4839806   -2.2427698 
H    -2.8190412    6.7817469   -0.7931577 
H    -0.2751557    5.0600691   -3.0973616 
H    -1.2909298    6.1245264   -4.1151609 
H    -1.5068246    4.3604475   -4.1864722 
H    -3.8033969    6.2946000   -3.6974931 
H    -4.5351571    5.5269107   -2.2584326 
H    -3.9755075    4.5153794   -3.6189202 
H    -0.6010768   -2.1176245   -3.1180026 
H    -0.3799909   -2.4876304   -6.9375394 
H    -2.0755568   -2.6907362   -7.4595453 
H    -1.0111847   -4.1151078   -7.3343358 
H    -0.7627573   -4.2715519   -3.5991139 
H    -0.3011002   -5.0272473   -5.1422138 
H     0.4085733   -3.4588488   -4.6815823 
H    -3.2283625   -4.4485430   -4.2730370 
H    -2.7122164   -5.2495791   -5.7859020 
H    -3.7870816   -3.8263395   -5.8511956 
H    -3.5438531   -1.5512869   -6.2199692 
H    -3.0386474    1.4378869   -3.1561879 
H    -4.4283270    2.8218942   -6.6097931 
H    -3.1179406    2.7042878   -5.3981452 
H    -3.0249754    1.7485274   -6.9040604 
H    -4.9053046    2.1656799   -3.6276776 
H    -5.9597524    0.7450684   -3.8308933 
H    -6.1849975    2.1895900   -4.8627628 
H    -4.6922280   -0.1382043   -7.3393192 
H    -5.8254991   -0.6576856   -6.0537201 
H    -6.0764868    0.8897840   -6.9080496 
