200
Energy =
C     0.8609239   -2.8486252    2.2407061 
C     0.6298344   -1.8754253    3.2689141 
C    -0.6601770   -1.3233782    3.4386232 
H     1.4790768   -1.4297201    3.8012653 
Pd    0.1307882   -0.9753508    1.3287654 
P    -0.4248720    1.2538563    0.9789414 
P     0.2705267   -1.4772358   -0.9406164 
H     0.0413664   -3.5406093    2.0056422 
H    -1.4970862   -1.8982454    3.0102787 
C     4.7394672   -4.1571500    0.8961968 
C     4.6265054   -2.9889493    1.6687410 
C     3.3746521   -2.5582474    2.1177850 
C     2.2022644   -3.2938744    1.8178280 
C     2.3321125   -4.4716761    1.0466345 
C     3.5862242   -4.8939830    0.5893141 
H     5.7197814   -4.4899770    0.5400275 
H     5.5207126   -2.4076985    1.9171697 
H     3.3069532   -1.6306323    2.6957367 
H     1.4370536   -5.0523112    0.7977474 
H     3.6628325   -5.8073675   -0.0087524 
C    -2.0026485    1.7971465    6.0638169 
C    -2.8934685    1.1575091    5.1888996 
C    -2.4332250    0.1394069    4.3495847 
C    -1.0752830   -0.2588369    4.3601256 
C    -0.1897026    0.3997107    5.2436190 
C    -0.6510029    1.4164661    6.0847806 
H    -2.3609398    2.5878462    6.7306467 
H    -3.9484171    1.4497213    5.1626841 
H    -3.1306220   -0.3569798    3.6675067 
H     0.8649202    0.1135227    5.2786165 
H     0.0483909    1.9186642    6.7602751 
C    -0.1792128    6.6356474    3.7890584 
C    -0.7899476    5.3790662    4.4644859 
C    -2.2976756    5.3138140    4.1313028 
C    -0.6364783    5.5007497    6.0003361 
C    -0.0354725    4.1450838    3.9315288 
C    -0.5800519    3.3325512    2.9191642 
C     1.2568784    3.8367297    4.3974155 
C     2.0039553    2.7378221    3.9259520 
C     3.4060436    2.4478518    4.4976782 
C     3.3881969    2.5382393    6.0439184 
C     3.9056935    1.0391189    4.1116826 
C     4.3906124    3.5004380    3.9247705 
C     1.4334069    1.9546339    2.9089690 
C     0.1599505    2.2658938    2.3901431 
C    -2.1933024    1.5989415    0.7043838 
C    -2.6395399    2.8647989    0.2868515 
C    -4.0101901    3.0985312    0.0864550 
C    -4.5515827    4.4682751   -0.3646238 
C    -5.4395564    5.0544535    0.7626973 
C    -5.3935358    4.2865582   -1.6530830 
C    -3.4112862    5.4629866   -0.6687041 
C    -4.8994128    2.0256974    0.3057189 
C    -4.4760624    0.7357917    0.6826670 
C    -3.0999118    0.5415450    0.8819857 
C    -5.4978969   -0.3994702    0.8857143 
C    -4.8031923   -1.7713073    1.0351494 
C    -6.3137758   -0.1036648    2.1706715 
C    -6.4550995   -0.4777127   -0.3298555 
C     0.4427735    1.9841894   -0.4786273 
C     1.5170945    2.8796412   -0.3062162 
C     2.1943845    3.3947888   -1.4186013 
C     1.8054846    3.0350700   -2.7132393 
C     0.0389065    1.6047515   -1.7830059 
C     0.7207475    2.1626569   -2.8908028 
C    -1.1252336    0.7118866   -2.0752577 
C    -2.2394407    1.3074181   -2.7156794 
O    -2.1602776    2.6605868   -2.9310987 
C    -2.5218645    3.1719747   -4.2287700 
C    -1.6221762    2.6372997   -5.3468523 
C    -0.1205337    2.7826867   -5.0827622 
O     0.3108128    1.7745130   -4.1401380 
C    -3.3671459    0.5508357   -3.0680048 
C    -3.3726425   -0.8256041   -2.8188109 
C    -2.2731853   -1.4437356   -2.2104981 
C    -1.1491726   -0.6843957   -1.8279518 
C     1.7544750   -0.9583663   -1.8606358 
C     1.7564304   -0.9974106   -3.2671308 
C     2.8952394   -0.5949746   -3.9814584 
C     2.9525996   -0.6120902   -5.5204440 
C     4.0538291   -1.6027234   -5.9764639 
C     3.2863176    0.8136835   -6.0292837 
C     1.6065323   -1.0442620   -6.1390170 
C     4.0070149   -0.1448645   -3.2397529 
C     4.0220663   -0.0685105   -1.8338369 
C     2.8722193   -0.4985032   -1.1470200 
C     5.2744674    0.4432586   -1.0966462 
C     6.3609850   -0.6614982   -1.1606133 
C     4.9675260    0.7630279    0.3820474 
C     5.8053338    1.7348809   -1.7661149 
C     0.0669452   -3.2781853   -1.2160645 
C     0.9313627   -4.0158612   -2.0434858 
C     0.7664420   -5.4046560   -2.1881682 
C     1.6640657   -6.2348349   -3.1270106 
C     2.1766179   -7.5048195   -2.4028879 
C     2.8866266   -5.4276240   -3.6158150 
C     0.8169627   -6.6537846   -4.3576335 
C    -0.2805284   -6.0273547   -1.4739659 
C    -1.1520142   -5.3187549   -0.6250822 
C    -0.9550149   -3.9304436   -0.5054658 
C    -2.3021693   -5.9892555    0.1516945 
C    -2.2104221   -5.6059126    1.6513301 
C    -3.6479200   -5.4815042   -0.4288824 
C    -2.2616876   -7.5273817    0.0395452 
H    -0.6892451    7.5500502    4.1420526 
H    -0.2854533    6.5801564    2.6911534 
H     0.8959073    6.7289736    4.0229251 
H    -2.8161462    6.1768744    4.5830341 
H    -2.4835987    5.3534355    3.0436072 
H    -2.7572548    4.3903017    4.5251695 
H    -1.2106540    6.3689177    6.3680982 
H     0.4134475    5.6517785    6.3036448 
H    -1.0129815    4.5972003    6.5089213 
H    -1.5811151    3.5303797    2.5329045 
H     1.6973707    4.4722346    5.1708418 
H     4.3890862    2.3053667    6.4475561 
H     3.1156382    3.5455768    6.4005329 
H     2.6698737    1.8172715    6.4730782 
H     3.2186941    0.2552160    4.4788289 
H     4.0164360    0.9217324    3.0216410 
H     4.8945861    0.8552717    4.5652044 
H     4.4326910    3.4350669    2.8229650 
H     4.0790648    4.5245331    4.1944374 
H     5.4087384    3.3352008    4.3209948 
H     1.9727275    1.0945042    2.4973833 
H    -1.9051864    3.6498988    0.0942695 
H    -4.8550347    5.1913288    1.6896601 
H    -6.2918662    4.3918460    0.9932779 
H    -5.8454038    6.0366388    0.4609445 
H    -4.7788397    3.8383109   -2.4518533 
H    -6.2671610    3.6334600   -1.4863336 
H    -5.7686803    5.2634881   -2.0061200 
H    -2.8062624    5.6802053    0.2297267 
H    -3.8354754    6.4193382   -1.0201426 
H    -2.7398863    5.0738186   -1.4539111 
H    -5.9702545    2.1999811    0.1578067 
H    -2.7019492   -0.4399027    1.1530851 
H    -4.1665130   -1.9928965    0.1606242 
H    -5.5609195   -2.5691122    1.1182800 
H    -4.1745775   -1.8229559    1.9423639 
H    -6.8492485    0.8583149    2.0903679 
H    -7.0609690   -0.8981478    2.3472210 
H    -5.6513244   -0.0496886    3.0529808 
H    -7.0403787    0.4489628   -0.4548780 
H    -7.1722863   -1.3067917   -0.1963209 
H    -5.8886537   -0.6527558   -1.2604095 
H     1.8192230    3.1847219    0.6989434 
H     3.0321464    4.0842483   -1.2720698 
H     2.3364842    3.4198099   -3.5890388 
H    -3.5857409    2.9649224   -4.4534108 
H    -2.4109608    4.2632413   -4.1194824 
H    -1.8361565    1.5688533   -5.5312087 
H    -1.8787878    3.1810004   -6.2756189 
H     0.1297527    3.7896567   -4.7001026 
H     0.4462425    2.6125478   -6.0143212 
H    -4.2295534    1.0359970   -3.5333757 
H    -4.2402341   -1.4277692   -3.1076039 
H    -2.2860786   -2.5247036   -2.0509962 
H     0.8535303   -1.3195223   -3.7907397 
H     4.1179995   -1.6241848   -7.0791465 
H     5.0456575   -1.3166167   -5.5852878 
H     3.8313571   -2.6250160   -5.6229725 
H     4.2747140    1.1556605   -5.6772488 
H     3.2984844    0.8337950   -7.1336831 
H     2.5280295    1.5299222   -5.6707179 
H     0.7910536   -0.3664404   -5.8322170 
H     1.6785421   -1.0213485   -7.2402529 
H     1.3341190   -2.0740292   -5.8460952 
H     4.8996518    0.1740827   -3.7870456 
H     2.8204878   -0.4692256   -0.0550786 
H     5.9975965   -1.5919828   -0.6909237 
H     6.6312000   -0.8909915   -2.2062470 
H     7.2760721   -0.3358069   -0.6333164 
H     5.8667128    1.1739965    0.8730571 
H     4.6695751   -0.1403421    0.9391379 
H     4.1575166    1.5090905    0.4701639 
H     5.0277446    2.5180413   -1.7756577 
H     6.1301144    1.5620525   -2.8061395 
H     6.6783749    2.1174965   -1.2085632 
H     1.7398678   -3.4985578   -2.5621421 
H     2.7594225   -7.2409501   -1.5035803 
H     2.8300020   -8.0857411   -3.0771058 
H     1.3517286   -8.1677144   -2.0910787 
H     3.5233340   -6.0672694   -4.2507464 
H     2.5887631   -4.5538530   -4.2217603 
H     3.4997759   -5.0676000   -2.7705630 
H    -0.0551110   -7.2601479   -4.0563219 
H     1.4260700   -7.2541794   -5.0569692 
H     0.4443580   -5.7650882   -4.8968648 
H    -0.4144618   -7.1057461   -1.5848727 
H    -1.6013970   -3.3417809    0.1565622 
H    -2.3252576   -4.5180157    1.8065128 
H    -3.0132398   -6.1045236    2.2222783 
H    -1.2405654   -5.9149432    2.0797365 
H    -4.4972669   -5.9343848    0.1134092 
H    -3.7380566   -5.7469108   -1.4967233 
H    -3.7357416   -4.3845618   -0.3408973 
H    -1.3134957   -7.9383795    0.4287399 
H    -2.3859888   -7.8656863   -1.0039672 
H    -3.0858821   -7.9649857    0.6286417 
