206
Energy =
C    -1.8390077   -3.3164083    1.5192898 
C    -3.0242338   -2.6127258    1.1418126 
C    -3.3422764   -2.3793140   -0.2163533 
H    -3.6111072   -2.1075540    1.9196677 
Pd   -1.3070119   -1.5114782    0.3307615 
P    -1.3637949    0.5084606   -0.8785822 
P     0.8397421   -1.0762098    1.0801118 
H    -1.4732806   -4.1006723    0.8399609 
H    -2.9010221   -3.0630781   -0.9585707 
C    -0.4275647   -3.5973648    5.5799169 
C    -1.2280526   -2.5110350    5.1891688 
C    -1.6951318   -2.4189571    3.8746304 
C    -1.3835317   -3.4154556    2.9205422 
C    -0.5819508   -4.5023467    3.3308505 
C    -0.1045852   -4.5904066    4.6443627 
H    -0.0571609   -3.6659542    6.6078193 
H    -1.4821097   -1.7269927    5.9108735 
H    -2.2865774   -1.5483398    3.5761006 
H    -0.3264757   -5.2823753    2.6068948 
H     0.5296092   -5.4340199    4.9344018 
C    -6.6828905   -0.1481510   -1.7498017 
C    -6.2594305    0.0639072   -0.4274806 
C    -5.1752562   -0.6503042    0.0889890 
C    -4.4884078   -1.5960316   -0.7063255 
C    -4.9222758   -1.7910069   -2.0363313 
C    -6.0057099   -1.0750593   -2.5553687 
H    -7.5360772    0.4103944   -2.1474850 
H    -6.7770398    0.7940847    0.2031014 
H    -4.8552491   -0.4608320    1.1168163 
H    -4.3982064   -2.5161745   -2.6654192 
H    -6.3181644   -1.2409657   -3.5913573 
C     5.3099952   -2.3688356    5.1752868 
C     3.7896744   -2.5205563    5.4426108 
C     3.5544234   -3.6598694    6.4659068 
C     3.2570241   -1.2074213    6.0556855 
C     3.0926643   -2.8565722    4.1096275 
C     2.2835246   -1.9187887    3.4377945 
C     3.3016132   -4.1063601    3.4989320 
C     2.7158415   -4.4657151    2.2677338 
C     3.0236850   -5.8354451    1.6341050 
C     4.5363800   -5.8872900    1.2936640 
C     2.6731200   -6.9676259    2.6323059 
C     2.2230691   -6.0652350    0.3346404 
C     1.8862073   -3.5225234    1.6467106 
C     1.6831257   -2.2504112    2.2158297 
C     2.1846259   -0.9872260   -0.1682662 
C     2.0009195   -1.5368354   -1.4403323 
C     3.1000277   -1.7126532   -2.3098680 
C     2.8794864   -2.3638312   -3.6888972 
C     2.2510420   -3.7673562   -3.4864817 
C     4.1954002   -2.5326360   -4.4759860 
C     1.9233350   -1.4754673   -4.5228899 
C     4.3627300   -1.3049258   -1.8528709 
C     4.5722223   -0.7334208   -0.5749274 
C     3.4630883   -0.5833611    0.2642054 
C     5.9958586   -0.3517697   -0.1284083 
C     6.6153419    0.6315490   -1.1527747 
C     6.0009843    0.3189289    1.2618401 
C     6.8552068   -1.6411450   -0.0569145 
C     0.6527827    0.5580523    1.8886221 
C     0.2300894    0.6011914    3.2358419 
C    -0.0062646    1.8344473    3.8483483 
C     0.1517568    3.0296875    3.1364218 
C     0.7560287    1.7489262    1.1309817 
C     0.5148088    2.9914151    1.7789314 
C     1.1019926    1.7857325   -0.3216088 
C     2.3343690    2.3818133   -0.6899636 
O     3.1277816    2.7729283    0.3494254 
C     4.1560091    3.7535817    0.1141498 
C     3.5875905    5.1615209   -0.1254338 
C     3.3504454    5.9990943    1.1452687 
C     2.3120929    5.4807772    2.1578381 
C     0.8779633    5.3712547    1.6149898 
O     0.6275053    4.0982295    0.9909928 
C     2.6913072    2.5025314   -2.0448562 
C     1.8237069    2.0268185   -3.0335809 
C     0.6031793    1.4326944   -2.6934954 
C     0.2377969    1.3110956   -1.3396137 
C    -2.1880337    1.8281943    0.0930693 
C    -2.1798836    3.1485683   -0.3910269 
C    -2.8591704    4.1669140    0.2993670 
C    -2.9597764    5.5969131   -0.2671344 
C    -1.8794584    5.8590413   -1.3405109 
C    -2.7976903    6.6511496    0.8546810 
C    -4.3615974    5.7534983   -0.9143048 
C    -3.4983306    3.8205881    1.5056261 
C    -3.4637343    2.5218748    2.0533878 
C    -2.8037347    1.5221187    1.3186753 
C    -4.1588533    2.2425550    3.4007293 
C    -3.8375807    0.8304217    3.9320622 
C    -3.6869956    3.2703222    4.4606038 
C    -5.6919481    2.3666282    3.2062489 
C    -2.2516344    0.3483098   -2.4797907 
C    -2.0222076   -0.8267814   -3.2282200 
C    -2.6075356   -0.9978024   -4.4923652 
C    -2.4054913   -2.2691549   -5.3410497 
C    -1.5807182   -1.8989882   -6.6012751 
C    -1.6572743   -3.3713471   -4.5626833 
C    -3.7807362   -2.8362543   -5.7785441 
C    -3.4067395    0.0546831   -4.9943053 
C    -3.6635743    1.2294186   -4.2700577 
C    -3.0865889    1.3501138   -2.9881547 
C    -4.5052734    2.3941427   -4.8283354 
C    -5.7026253    2.6731920   -3.8861185 
C    -5.0535528    2.0957605   -6.2389461 
C    -3.6061534    3.6562899   -4.9073100 
H     5.7398160   -3.2999084    4.7664925 
H     5.4996310   -1.5594409    4.4479553 
H     5.8451472   -2.1268859    6.1111226 
H     3.9719283   -4.6207009    6.1200725 
H     2.4759599   -3.8029743    6.6506109 
H     4.0414065   -3.4137094    7.4259715 
H     3.7419055   -1.0288186    7.0309031 
H     3.4732812   -0.3338002    5.4158572 
H     2.1657151   -1.2549883    6.2214026 
H     2.1510183   -0.9199263    3.8536850 
H     3.9553275   -4.8293130    3.9973217 
H     4.7929403   -6.8552556    0.8268677 
H     5.1585557   -5.7715823    2.1979711 
H     4.8042749   -5.0787831    0.5904165 
H     3.2461807   -6.8802285    3.5711495 
H     2.9040938   -7.9527272    2.1896371 
H     1.5985911   -6.9505279    2.8867989 
H     1.1331496   -6.0332321    0.5155377 
H     2.4686790   -5.3143788   -0.4368757 
H     2.4624959   -7.0598796   -0.0792033 
H     1.4141725   -3.7481197    0.6856080 
H     0.9938769   -1.8462323   -1.7439088 
H     2.0590495   -4.2477000   -4.4625305 
H     1.2916475   -3.7140405   -2.9435250 
H     2.9301923   -4.4182031   -2.9083826 
H     3.9863456   -3.0072298   -5.4502959 
H     4.6795058   -1.5604923   -4.6757839 
H     4.9138677   -3.1757729   -3.9379904 
H     2.3709280   -0.4827674   -4.6998832 
H     0.9582309   -1.3180762   -4.0127553 
H     1.7209651   -1.9455428   -5.5017803 
H     5.2290827   -1.4440400   -2.5038851 
H     3.5741958   -0.1709089    1.2694813 
H     7.6343503    0.9205449   -0.8397117 
H     6.0041125    1.5474731   -1.2317913 
H     6.6876766    0.1855172   -2.1593771 
H     5.3670509    1.2223407    1.2764816 
H     5.6384762   -0.3689743    2.0462111 
H     7.0299873    0.6155098    1.5288520 
H     7.8820699   -1.4008353    0.2723387 
H     6.4188311   -2.3591390    0.6600104 
H     6.9226850   -2.1390616   -1.0398434 
H     0.0851263   -0.3250313    3.7972766 
H    -0.3155896    1.8694942    4.8980941 
H    -0.0316248    3.9832532    3.6362241 
H     4.7962388    3.4307003   -0.7265382 
H     4.7768879    3.7193646    1.0245341 
H     4.3023579    5.7116487   -0.7649151 
H     2.6582360    5.0666043   -0.7180727 
H     4.3169850    6.1172162    1.6719415 
H     3.0529124    7.0187515    0.8330924 
H     2.6080738    4.4939972    2.5607829 
H     2.3017134    6.1735152    3.0194699 
H     0.1283198    5.5571361    2.4051952 
H     0.6940376    6.1069157    0.8151981 
H     3.6404043    2.9600060   -2.3329339 
H     2.1040480    2.1256783   -4.0873275 
H    -0.0672305    1.0750969   -3.4788745 
H    -1.6237040    3.3746878   -1.3035045 
H    -1.9212195    6.9133481   -1.6637891 
H    -0.8679700    5.6518012   -0.9506603 
H    -2.0310547    5.2366655   -2.2392375 
H    -2.8390793    7.6672325    0.4249983 
H    -1.8302683    6.5346936    1.3715634 
H    -3.5989762    6.5833205    1.6098386 
H    -4.4815730    6.7672208   -1.3371603 
H    -5.1618742    5.5927129   -0.1707229 
H    -4.5017697    5.0208782   -1.7284255 
H    -4.0374622    4.6000598    2.0523396 
H    -2.7294165    0.4978239    1.6952043 
H    -2.7498312    0.6888991    4.0539608 
H    -4.3166622    0.6795683    4.9145133 
H    -4.2187628    0.0412701    3.2599173 
H    -2.5924991    3.2196000    4.5914962 
H    -4.1648867    3.0597277    5.4336920 
H    -3.9496026    4.3040291    4.1789195 
H    -6.2187433    2.1841740    4.1599634 
H    -6.0532153    1.6307635    2.4665948 
H    -5.9718444    3.3725718    2.8485378 
H    -1.3920930   -1.6098976   -2.7947260 
H    -0.5977375   -1.4854540   -6.3183109 
H    -2.1029846   -1.1452461   -7.2156909 
H    -1.4148208   -2.7931227   -7.2285299 
H    -2.1999348   -3.6607553   -3.6441486 
H    -1.5609610   -4.2728316   -5.1916381 
H    -0.6393627   -3.0572239   -4.2797114 
H    -4.3977370   -3.1067360   -4.9037279 
H    -3.6375392   -3.7455095   -6.3885282 
H    -4.3514685   -2.1145411   -6.3869572 
H    -3.8486407   -0.0605858   -5.9867440 
H    -3.2884959    2.2392146   -2.3864286 
H    -6.2689717    3.5523082   -4.2416534 
H    -6.3853360    1.8082658   -3.8602781 
H    -5.3762602    2.8742573   -2.8512257 
H    -5.7115356    1.2086499   -6.2415409 
H    -4.2412183    1.9300313   -6.9685021 
H    -5.6497178    2.9538284   -6.5940969 
H    -3.2308028    3.9493752   -3.9116479 
H    -2.7344766    3.4781638   -5.5610576 
H    -4.1782182    4.5082294   -5.3161108 
