197
Energy =
C    -1.6853935    2.5962899    1.9009255 
C    -2.7748607    1.6667161    1.8473739 
C    -2.6663521    0.4101530    2.4857927 
H    -3.6160093    1.8513558    1.1680711 
Pd   -1.0020648    0.7163793    0.9606211 
P    -0.9421003   -1.3352421   -0.1356016 
P     1.1590397    1.2950986    0.3379855 
H    -1.0765631    2.6086332    2.8144354 
H    -1.8983194    0.3237472    3.2712651 
C    -1.3253239    6.1433935   -0.5181638 
C    -2.2498633    5.1470851   -0.8745080 
C    -2.3808015    3.9944600   -0.0944043 
C    -1.6003910    3.8149093    1.0733639 
C    -0.6805232    4.8294160    1.4244371 
C    -0.5434964    5.9771298    0.6341901 
H    -1.2192304    7.0424783   -1.1338211 
H    -2.8680054    5.2683482   -1.7702632 
H    -3.0874843    3.2185546   -0.4058237 
H    -0.0626649    4.7078865    2.3208819 
H     0.1771363    6.7484432    0.9234648 
C    -5.4464273   -2.8611726    2.5481808 
C    -5.7611814   -1.7043659    1.8174692 
C    -4.8704425   -0.6278936    1.7803476 
C    -3.6406155   -0.6877003    2.4745917 
C    -3.3327295   -1.8657850    3.1958314 
C    -4.2243001   -2.9414591    3.2331886 
H    -6.1531968   -3.6963554    2.5837169 
H    -6.7088955   -1.6411213    1.2737863 
H    -5.1387605    0.2683627    1.2143887 
H    -2.3795211   -1.9320712    3.7306210 
H    -3.9671124   -3.8424053    3.7998752 
C     1.3850156   -7.4764186    1.0977612 
C     0.8042343   -6.4134373    0.1421481 
C    -0.5510579   -6.9350759   -0.4015328 
C     1.7929363   -6.2223869   -1.0358185 
C     0.5731327   -5.0605409    0.8463571 
C     0.0321278   -3.9795745    0.1201252 
C     0.8737992   -4.8490361    2.2048703 
C     0.6672057   -3.6138826    2.8590735 
C     1.0156138   -3.4520559    4.3510913 
C    -0.0045400   -4.2713017    5.1838073 
C     2.4476103   -3.9754667    4.6250179 
C     0.9525908   -1.9737539    4.7953238 
C     0.1084265   -2.5690948    2.1107473 
C    -0.2184291   -2.7530919    0.7549858 
C    -2.6472637   -1.7746995   -0.6468823 
C    -3.4389775   -0.7278161   -1.1654843 
C    -4.7329380   -0.9789686   -1.6480846 
C    -5.6080395    0.1286162   -2.2679535 
C    -5.0763287    1.5383446   -1.9322323 
C    -7.0619666    0.0316116   -1.7428522 
C    -5.5974882   -0.0544521   -3.8081531 
C    -5.2074867   -2.3055177   -1.5790123 
C    -4.4625750   -3.3607606   -1.0211241 
C    -3.1653345   -3.0734779   -0.5509218 
C    -5.0148029   -4.7999778   -0.9987241 
C    -4.3793699   -5.6316792    0.1391867 
C    -4.6657548   -5.4583608   -2.3602179 
C    -6.5498357   -4.8109666   -0.8061125 
C     0.0012589   -1.2333229   -1.7223034 
C    -0.6844338   -1.1894772   -2.9515566 
C     0.0179375   -1.0686336   -4.1568714 
C     1.4145555   -1.0293108   -4.1507261 
C     1.4213759   -1.1698662   -1.6965469 
C     2.1049896   -1.1161029   -2.9327112 
C     2.2339040   -1.2192847   -0.4422278 
C     3.0973531   -2.3232017   -0.2565344 
O     3.1667536   -3.2924292   -1.2355033 
C     4.3481763   -3.2272184   -2.0604451 
C     4.0716871   -2.3923987   -3.3094913 
O     3.4872356   -1.1243764   -2.9416467 
C     3.8708246   -2.4662036    0.9050583 
C     3.8510753   -1.4597352    1.8736621 
C     3.0599820   -0.3201804    1.6824032 
C     2.2446593   -0.1917575    0.5412306 
C     1.4900918    1.8842281   -1.3538651 
C     2.8155089    1.9409242   -1.8246183 
C     3.0826064    2.3841858   -3.1286915 
C     4.5117973    2.4594088   -3.6979622 
C     4.5988526    1.5733174   -4.9674680 
C     4.8358054    3.9314424   -4.0590271 
C     5.5592273    1.9532364   -2.6839715 
C     1.9822261    2.7519096   -3.9314181 
C     0.6457047    2.6834429   -3.4942938 
C     0.4132690    2.2490865   -2.1758984 
C    -0.5031247    3.1074326   -4.4296187 
C    -1.8687814    2.6113683   -3.9067825 
C    -0.2926123    2.5265287   -5.8493710 
C    -0.5209116    4.6568313   -4.4997173 
C     1.8453866    2.5511814    1.4839400 
C     1.6137215    2.3739855    2.8586295 
C     2.0767888    3.3107794    3.8012944 
C     1.8208883    3.0620617    5.3007767 
C     2.2834286    4.2460141    6.1748462 
C     0.3040573    2.8424283    5.5363945 
C     2.5986612    1.7910761    5.7313526 
C     2.7660664    4.4368017    3.3125792 
C     2.9970575    4.6548374    1.9365401 
C     2.5233173    3.6942909    1.0257308 
C     3.7854742    5.8946610    1.4704635 
C     5.2682908    5.7079705    1.8874439 
C     3.2232965    7.1748263    2.1377402 
C     3.7181055    6.0761922   -0.0618647 
H     1.5281546   -8.4251325    0.5524619 
H     2.3677500   -7.1715446    1.4989138 
H     0.7086309   -7.6791554    1.9469163 
H    -0.4100158   -7.9035235   -0.9135324 
H    -1.2731533   -7.0823159    0.4204672 
H    -0.9965567   -6.2338079   -1.1288763 
H     1.9476760   -7.1844966   -1.5564361 
H     2.7664715   -5.8538401   -0.6724461 
H     1.4198654   -5.4888972   -1.7700196 
H    -0.1838584   -4.0856850   -0.9481908 
H     1.2954873   -5.6744519    2.7829078 
H     0.0310305   -5.3419760    4.9175839 
H     0.2132338   -4.1791384    6.2630174 
H    -1.0339482   -3.9120058    5.0059821 
H     2.7050365   -3.8374080    5.6899547 
H     3.1861461   -3.4288926    4.0139593 
H     2.5448711   -5.0506460    4.3981992 
H    -0.0693813   -1.5604673    4.7193258 
H     1.2616907   -1.8857727    5.8509562 
H     1.6261545   -1.3445938    4.1871978 
H    -0.0631618   -1.5849879    2.5548294 
H    -3.0204722    0.2843914   -1.1913997 
H    -5.7434931    2.3033337   -2.3646340 
H    -4.0681285    1.7113104   -2.3424455 
H    -5.0418808    1.7034983   -0.8402040 
H    -7.5432960   -0.9217637   -2.0176426 
H    -7.6730350    0.8446165   -2.1722096 
H    -7.0920059    0.1256636   -0.6427966 
H    -6.2255510    0.7136005   -4.2943590 
H    -5.9863065   -1.0475896   -4.0926367 
H    -4.5702550    0.0364453   -4.2039838 
H    -6.2072029   -2.5197568   -1.9648525 
H    -2.5528884   -3.8627229   -0.1104977 
H    -4.8418714   -6.6332160    0.1707174 
H    -3.2970031   -5.7778742   -0.0086497 
H    -4.5287121   -5.1478715    1.1191145 
H    -3.5722475   -5.4821007   -2.5143480 
H    -5.0432077   -6.4962519   -2.3955288 
H    -5.1163516   -4.8971653   -3.1977405 
H    -6.8386351   -4.2752807    0.1147823 
H    -6.9087751   -5.8516788   -0.7269488 
H    -7.0823424   -4.3490066   -1.6549212 
H    -1.7750257   -1.2586707   -2.9696971 
H    -0.5296149   -1.0204333   -5.1035220 
H     1.9872389   -0.9433191   -5.0787594 
H     4.6074339   -4.2625547   -2.3418888 
H     5.1824536   -2.7945278   -1.4785305 
H     5.0131637   -2.1742811   -3.8426336 
H     3.3886834   -2.9280106   -3.9935733 
H     4.4898520   -3.3606797    1.0217440 
H     4.4676790   -1.5486256    2.7738529 
H     3.0938161    0.4826248    2.4227332 
H     3.6261912    1.6120090   -1.1703554 
H     4.3544256    0.5276045   -4.7149004 
H     5.6203591    1.6078473   -5.3865423 
H     3.9028950    1.9135126   -5.7538232 
H     5.8570640    4.0080717   -4.4729506 
H     4.7755556    4.5769368   -3.1648588 
H     4.1353086    4.3300001   -4.8133903 
H     5.3655790    0.9035191   -2.4024319 
H     6.5664255    2.0078651   -3.1321595 
H     5.5710470    2.5680809   -1.7659800 
H     2.1789152    3.0970684   -4.9511995 
H    -0.6011889    2.1752179   -1.7748211 
H    -2.6661314    2.8821135   -4.6205508 
H    -1.8757865    1.5136236   -3.7844355 
H    -2.1238770    3.0699709   -2.9372870 
H    -0.2191335    1.4257763   -5.8162439 
H    -1.1437487    2.7988702   -6.4979670 
H     0.6215030    2.9162070   -6.3282452 
H    -0.6689766    5.0898465   -3.4952146 
H    -1.3383276    5.0056024   -5.1567645 
H     0.4315582    5.0449493   -4.9010487 
H     1.0567039    1.4909797    3.1950529 
H     1.7584639    5.1796421    5.9062013 
H     2.0668069    4.0317780    7.2354618 
H     3.3701844    4.4192871    6.0872299 
H    -0.2799173    3.7143018    5.1924967 
H     0.1019862    2.6949356    6.6118442 
H    -0.0685873    1.9472718    5.0067234 
H     3.6831098    1.9229232    5.5716868 
H     2.4297316    1.5811531    6.8026314 
H     2.2738315    0.9049516    5.1582664 
H     3.1364080    5.1777566    4.0245359 
H     2.6661888    3.8324206   -0.0469707 
H     5.6953527    4.8039796    1.4187305 
H     5.3670069    5.6036314    2.9821742 
H     5.8687426    6.5797287    1.5713572 
H     3.3092797    7.1433531    3.2371780 
H     3.7834401    8.0595279    1.7878483 
H     2.1590493    7.3201141    1.8837162 
H     2.6753424    6.1702309   -0.4140470 
H     4.2592942    6.9935322   -0.3504435 
H     4.1881980    5.2334471   -0.5987785 
