200
Energy =
C     3.4350910    0.2400897    1.4117218 
C     3.4328755    1.5406317    0.8186914 
C     2.5254017    2.5420070    1.2271682 
H     4.0152777    1.7134865   -0.0955770 
Pd    1.4252866    0.6529805    0.5613767 
P    -0.4439490    1.4990260   -0.5466637 
P     0.4679525   -1.4541897    0.8340444 
H     3.1861849    0.1630847    2.4784211 
H     2.0347463    2.4196736    2.2065699 
C     5.6620630   -3.0946453   -0.1671273 
C     5.3482946   -2.0061289   -0.9987894 
C     4.6255337   -0.9210810   -0.4957187 
C     4.2060950   -0.8898938    0.8561689 
C     4.5298946   -1.9902198    1.6806493 
C     5.2498353   -3.0788375    1.1728418 
H     6.2252362   -3.9461202   -0.5626705 
H     5.6674269   -2.0057266   -2.0462810 
H     4.3718108   -0.0920051   -1.1655273 
H     4.2077525   -1.9908613    2.7274850 
H     5.4916027   -3.9189590    1.8311231 
C     2.2503951    6.4916662   -0.4486514 
C     1.1735872    5.9423806    0.2645757 
C     1.2751232    4.6619741    0.8156367 
C     2.4500283    3.8942106    0.6486446 
C     3.5327055    4.4644774   -0.0581791 
C     3.4338802    5.7523826   -0.5963680 
H     2.1717224    7.4951341   -0.8789053 
H     0.2469559    6.5121054    0.3883500 
H     0.4245158    4.2344739    1.3563508 
H     4.4724606    3.9116396   -0.1551761 
H     4.2898649    6.1867083   -1.1229894 
C     2.6837961   -1.1730029   -4.0421480 
C     2.1765186   -2.6296837   -4.1100379 
C     3.3938310   -3.5878291   -4.1772785 
C     1.3258996   -2.7813820   -5.3954966 
C     1.3380441   -2.9962961   -2.8701935 
C     1.2933993   -2.1800311   -1.7262750 
C     0.5985102   -4.1943161   -2.8429000 
C    -0.1995381   -4.5892696   -1.7494246 
C    -1.0036057   -5.9011616   -1.8180654 
C    -1.8738574   -6.1064186   -0.5603033 
C    -1.9371573   -5.8568364   -3.0548924 
C    -0.0210661   -7.0929242   -1.9457085 
C    -0.2388501   -3.7413353   -0.6315231 
C     0.5143172   -2.5530889   -0.6196928 
C     1.2338391   -2.3703920    2.2259706 
C     1.6611483   -3.7033844    2.1060228 
C     2.2462491   -4.3668656    3.1992677 
C     2.6537061   -5.8513254    3.1134136 
C     4.0255820   -6.0890519    3.7908777 
C     2.7451780   -6.3357599    1.6489372 
C     1.5699919   -6.6823853    3.8507735 
C     2.3998118   -3.6501647    4.4055901 
C     2.0021977   -2.3070456    4.5504842 
C     1.4198469   -1.6778337    3.4345324 
C     2.1550064   -1.5221042    5.8679710 
C     2.9930700   -2.2912832    6.9103487 
C     2.8494622   -0.1641846    5.5900122 
C     0.7401231   -1.2694999    6.4517417 
C    -1.3235216   -1.3315735    1.2929163 
C    -1.7378125   -1.5392652    2.6240195 
C    -3.0856871   -1.4044867    2.9773364 
C    -4.0434874   -1.0753790    2.0132155 
C    -2.2805544   -0.9941611    0.3025208 
C    -3.6415070   -0.8889357    0.6825439 
C    -1.9699032   -0.8174863   -1.1492288 
C    -2.5253479   -1.7610960   -2.0480432 
O    -3.2209536   -2.8092126   -1.5039334 
C    -4.5890754   -3.0368947   -1.9118148 
C    -5.5271919   -2.7748860   -0.7302597 
C    -5.7564691   -1.2926815   -0.4222442 
O    -4.5245351   -0.5530512   -0.3136323 
C    -2.3218805   -1.6561755   -3.4320847 
C    -1.5860992   -0.5799277   -3.9391399 
C    -1.0404411    0.3755530   -3.0734966 
C    -1.2246643    0.2649428   -1.6801222 
C    -1.7812043    2.0795456    0.5507762 
C    -3.0768801    2.3401091    0.0624757 
C    -4.0709014    2.8229113    0.9252823 
C    -5.4992280    3.1340123    0.4396767 
C    -5.7880333    4.6423841    0.6517157 
C    -6.5083450    2.2869330    1.2560733 
C    -5.6834984    2.8018471   -1.0561205 
C    -3.7318107    3.0231805    2.2844542 
C    -2.4548442    2.7509132    2.8031082 
C    -1.4812378    2.2706938    1.9056195 
C    -2.0756045    2.9611268    4.2818482 
C    -3.2740690    3.4320170    5.1304216 
C    -0.9576274    4.0331968    4.3629743 
C    -1.5490838    1.6273578    4.8702219 
C    -0.0058867    2.8793058   -1.6674498 
C     1.2232634    2.7776460   -2.3425102 
C     1.5901547    3.7244214   -3.3145976 
C     2.8729857    3.5612149   -4.1535943 
C     3.5477073    4.9294073   -4.4118768 
C     2.4692044    2.9218709   -5.5089681 
C     3.8996552    2.6404652   -3.4553554 
C     0.6984396    4.7894692   -3.5500420 
C    -0.5236955    4.9387706   -2.8623911 
C    -0.8686712    3.9588577   -1.9159961 
C    -1.4438437    6.1349769   -3.1772916 
C    -0.6727702    7.4597943   -2.9479721 
C    -1.8914296    6.0458831   -4.6594318 
C    -2.7038069    6.1458204   -2.2850013 
H     3.2352191   -0.9228145   -4.9649297 
H     3.3716495   -1.0199178   -3.1938170 
H     1.8452159   -0.4610372   -3.9422232 
H     4.0302452   -3.3444546   -5.0473041 
H     4.0044796   -3.5066688   -3.2616362 
H     3.0682356   -4.6381726   -4.2752909 
H     1.9226896   -2.4957121   -6.2796913 
H     0.4345536   -2.1326000   -5.3522013 
H     0.9860177   -3.8197474   -5.5482064 
H     1.8451252   -1.2371450   -1.6818616 
H     0.6339769   -4.8470967   -3.7211523 
H    -2.4505335   -7.0427357   -0.6554808 
H    -1.2583358   -6.1876964    0.3536325 
H    -2.5867581   -5.2740280   -0.4281986 
H    -2.6100771   -4.9855383   -2.9893829 
H    -1.3680878   -5.7805938   -3.9973727 
H    -2.5498015   -6.7744974   -3.1064082 
H    -0.5783547   -8.0449036   -2.0049333 
H     0.6041956   -7.0098873   -2.8516245 
H     0.6524072   -7.1401599   -1.0718354 
H    -0.8706038   -3.9784725    0.2274279 
H     1.5422493   -4.2158284    1.1504789 
H     4.0073963   -5.8482263    4.8672038 
H     4.8148427   -5.4795686    3.3178941 
H     4.3112146   -7.1513033    3.6976792 
H     1.7654568   -6.3041067    1.1408304 
H     3.4553474   -5.7246536    1.0641714 
H     3.0924086   -7.3829838    1.6254072 
H     1.4910047   -6.3822508    4.9104136 
H     1.8190039   -7.7582628    3.8153049 
H     0.5808304   -6.5391395    3.3810143 
H     2.8490061   -4.1606895    5.2599740 
H     1.1030751   -0.6302213    3.5009946 
H     2.5127017   -3.2409468    7.2035825 
H     3.1008964   -1.6812190    7.8235714 
H     4.0059397   -2.5154149    6.5316954 
H     2.2503881    0.4766019    4.9185722 
H     2.9901905    0.3920725    6.5333110 
H     3.8415452   -0.3147979    5.1284942 
H     0.1105982   -0.6988651    5.7472971 
H     0.8073715   -0.6930699    7.3918937 
H     0.2307469   -2.2249045    6.6675111 
H    -1.0117298   -1.8240631    3.3886680 
H    -3.3915580   -1.5639229    4.0164706 
H    -5.0953751   -0.9629278    2.2896940 
H    -4.8373060   -2.3957829   -2.7779791 
H    -4.6592741   -4.0923692   -2.2265669 
H    -6.5114711   -3.2340083   -0.9407251 
H    -5.1151007   -3.2904503    0.1561765 
H    -6.2877758   -0.7944657   -1.2496276 
H    -6.3723893   -1.1733962    0.4896129 
H    -2.7348819   -2.4200037   -4.0975630 
H    -1.4345316   -0.4826079   -5.0189581 
H    -0.4783019    1.2174949   -3.4854012 
H    -3.2994167    2.1341516   -0.9867041 
H    -6.8095820    4.8880126    0.3105837 
H    -5.7096442    4.9278137    1.7151394 
H    -5.0741319    5.2605148    0.0789655 
H    -6.4636353    2.5189434    2.3339820 
H    -7.5396245    2.4829265    0.9125610 
H    -6.2955817    1.2121486    1.1281073 
H    -5.4720940    1.7380665   -1.2588335 
H    -6.7241673    3.0119762   -1.3577932 
H    -5.0231359    3.4159493   -1.6938710 
H    -4.5056882    3.3981649    2.9588211 
H    -0.4746525    2.0203342    2.2594171 
H    -3.6649876    4.4040531    4.7820175 
H    -4.0987304    2.6977403    5.1114933 
H    -2.9603855    3.5571612    6.1810910 
H    -0.6753626    4.2152191    5.4152526 
H    -1.2949698    4.9885678    3.9246568 
H    -0.0485623    3.7143668    3.8224909 
H    -0.6663279    1.2592004    4.3186707 
H    -2.3229744    0.8427512    4.8221581 
H    -1.2537675    1.7638225    5.9256699 
H     1.8824038    1.9347892   -2.1089535 
H     2.9105132    5.6005657   -5.0121695 
H     4.4879543    4.7852262   -4.9721078 
H     3.7825246    5.4376935   -3.4614903 
H     3.3570269    2.7866125   -6.1528991 
H     2.0022283    1.9332605   -5.3513822 
H     1.7461668    3.5596119   -6.0469713 
H     4.1576424    3.0236294   -2.4530449 
H     4.8256036    2.5928754   -4.0537224 
H     3.5265464    1.6074891   -3.3498183 
H     0.9655278    5.5367378   -4.3031204 
H    -1.8050782    4.0322792   -1.3608179 
H     0.2309806    7.5234720   -3.5780046 
H    -1.3167438    8.3224978   -3.1944940 
H    -0.3597469    7.5527021   -1.8941622 
H    -2.5569987    6.8911985   -4.9099309 
H    -2.4396183    5.1058076   -4.8465452 
H    -1.0289471    6.0802270   -5.3473481 
H    -3.3251286    7.0241270   -2.5303839 
H    -2.4457269    6.2057421   -1.2124646 
H    -3.3245982    5.2457081   -2.4404520 
