197
Energy =
C    -1.5649877    2.5125348    2.3002499 
C    -2.7662214    1.8128390    1.9812359 
C    -2.9358722    0.4651250    2.3755726 
H    -3.4875368    2.2651085    1.2874492 
Pd   -1.0868041    0.7168205    1.0661584 
P    -1.0284751   -1.3136320   -0.0951880 
P     1.0837492    1.2520095    0.4192849 
H    -1.0607090    2.2272911    3.2349038 
H    -2.2792910    0.0938093    3.1791653 
C    -0.5500304    6.4610149    0.9207110 
C    -1.2777867    5.5977724    0.0840053 
C    -1.6215402    4.3153663    0.5234030 
C    -1.2449018    3.8676049    1.8097434 
C    -0.5203571    4.7483322    2.6400951 
C    -0.1766445    6.0319822    2.2025133 
H    -0.2761168    7.4622669    0.5720966 
H    -1.5702184    5.9245820   -0.9186163 
H    -2.1678994    3.6396522   -0.1445881 
H    -0.2237145    4.4173198    3.6390946 
H     0.3886146    6.6944175    2.8655675 
C    -6.4017471   -1.9826131    1.6961364 
C    -5.1715001   -2.5645864    2.0388045 
C    -4.0512916   -1.7594282    2.2619639 
C    -4.1321958   -0.3547763    2.1272359 
C    -5.3790325    0.2202462    1.7939195 
C    -6.5033258   -0.5869935    1.5886685 
H    -7.2808915   -2.6126731    1.5264293 
H    -5.0831853   -3.6509831    2.1313444 
H    -3.0916468   -2.2212945    2.5187077 
H    -5.4804077    1.3086360    1.7333305 
H    -7.4673285   -0.1227548    1.3569539 
C     1.0443645   -4.4983847    5.3452412 
C     0.4177293   -3.2967501    4.6092444 
C     1.2908418   -2.0437554    4.8781198 
C    -1.0089281   -3.0611388    5.1702823 
C     0.3221109   -3.5290375    3.0889851 
C    -0.2078828   -2.5098228    2.2730439 
C     0.7357766   -4.7133387    2.4569332 
C     0.6518232   -4.9104895    1.0577412 
C     1.1401192   -6.2343319    0.4394333 
C     0.9798484   -6.2470434   -1.0955464 
C     2.6427864   -6.4248896    0.7706559 
C     0.3148886   -7.4041157    1.0341061 
C     0.1241081   -3.8717144    0.2780987 
C    -0.3161775   -2.6790206    0.8875242 
C    -2.6729224   -1.8634205   -0.6879400 
C    -3.5562590   -0.8663404   -1.1484265 
C    -4.7577500   -1.2148806   -1.7835488 
C    -5.6741281   -0.1582029   -2.4311966 
C    -5.3558817    1.2671209   -1.9275593 
C    -7.1634819   -0.4579080   -2.1351012 
C    -5.4369237   -0.2113630   -3.9645095 
C    -5.0641322   -2.5903228   -1.8974031 
C    -4.2202705   -3.6049518   -1.4138740 
C    -3.0084732   -3.2173448   -0.8070253 
C    -4.5414070   -5.1058204   -1.5607931 
C    -3.4499794   -5.7605136   -2.4482372 
C    -5.9171381   -5.3475794   -2.2153848 
C    -4.5391307   -5.7790943   -0.1646575 
C    -0.0304677   -1.2983147   -1.6546421 
C    -0.6977025   -1.3274136   -2.8946290 
C     0.0217052   -1.3210556   -4.0952162 
C     1.4174371   -1.3060136   -4.0717021 
C     1.3901760   -1.2680676   -1.6121107 
C     2.0894275   -1.3053757   -2.8408637 
C     2.1896441   -1.2768346   -0.3503642 
C     3.0527185   -2.3778961   -0.1310698 
O     3.1161733   -3.3865714   -1.0744927 
C     4.3138929   -3.3798812   -1.8799018 
C     4.0694964   -2.5810650   -3.1591226 
O     3.4718960   -1.3096265   -2.8314316 
C     3.8255825   -2.4926106    1.0325246 
C     3.8018951   -1.4641494    1.9762209 
C     3.0034740   -0.3358425    1.7586262 
C     2.1876708   -0.2302993    0.6147131 
C     1.2988626    1.7833060   -1.3155753 
C     2.5929307    1.8274859   -1.8749529 
C     2.7786584    2.2627817   -3.1933741 
C     4.1695738    2.3254841   -3.8528648 
C     4.1943203    1.3651748   -5.0701521 
C     4.4484776    3.7757233   -4.3234937 
C     5.2863854    1.8985181   -2.8770425 
C     1.6318720    2.6430815   -3.9296005 
C     0.3307042    2.6027302   -3.4021302 
C     0.1816165    2.1623807   -2.0693375 
C    -0.9129992    3.0254016   -4.2108434 
C    -0.5541360    3.4821266   -5.6398729 
C    -1.6134070    4.1999986   -3.4818363 
C    -1.8954698    1.8320732   -4.3109438 
C     1.8698056    2.5603589    1.4416447 
C     2.5108335    3.6619901    0.8547799 
C     3.1545192    4.6262622    1.6529256 
C     3.9179050    5.8129834    1.0315371 
C     3.4756206    7.1432496    1.6900640 
C     5.4342655    5.5935538    1.2751219 
C     3.6701781    5.9233737   -0.4885879 
C     3.1328152    4.4449190    3.0482444 
C     2.4636854    3.3720088    3.6725028 
C     1.8153636    2.4403573    2.8447324 
C     2.4850889    3.2348159    5.2080328 
C     1.5739420    2.0898871    5.6997195 
C     2.0088409    4.5534017    5.8685470 
C     3.9404391    2.9320231    5.6510447 
H     1.0976494   -4.2861967    6.4269789 
H     0.4434672   -5.4154446    5.2147373 
H     2.0710100   -4.7013091    4.9926131 
H     1.3542329   -1.8463217    5.9630739 
H     2.3131016   -2.1883069    4.4888419 
H     0.8727227   -1.1432838    4.3947233 
H    -0.9705668   -2.8993937    6.2622360 
H    -1.6581345   -3.9317387    4.9719463 
H    -1.4842867   -2.1734955    4.7161960 
H    -0.5241603   -1.5570744    2.7120856 
H     1.1522320   -5.5189844    3.0667485 
H     1.5565539   -5.4309677   -1.5634472 
H     1.3506688   -7.2054694   -1.4982134 
H    -0.0786297   -6.1492466   -1.3964878 
H     3.0086644   -7.3760143    0.3443895 
H     2.8234782   -6.4531520    1.8592063 
H     3.2311324   -5.5971328    0.3398888 
H    -0.7597658   -7.2775924    0.8113939 
H     0.6466766   -8.3643054    0.6004596 
H     0.4298896   -7.4720161    2.1297920 
H     0.0778829   -3.9611559   -0.8095952 
H    -3.2732439    0.1836988   -1.0220673 
H    -6.0671982    1.9857096   -2.3696530 
H    -4.3416230    1.5923548   -2.2173085 
H    -5.4427451    1.3300673   -0.8290202 
H    -7.4839663   -1.4248918   -2.5582736 
H    -7.8009999    0.3235836   -2.5843687 
H    -7.3510753   -0.4798117   -1.0492409 
H    -6.0662763    0.5373722   -4.4787186 
H    -5.6866667   -1.2072505   -4.3702777 
H    -4.3801734   -0.0001377   -4.2049482 
H    -5.9962905   -2.8718361   -2.3914949 
H    -2.3200519   -3.9779225   -0.4288806 
H    -3.6583760   -6.8373467   -2.5795341 
H    -3.4211235   -5.2889058   -3.4460334 
H    -2.4472359   -5.6630263   -1.9966908 
H    -5.9628095   -4.9347568   -3.2384859 
H    -6.1092101   -6.4320095   -2.2864889 
H    -6.7343545   -4.9004509   -1.6220457 
H    -3.5724630   -5.6508718    0.3532600 
H    -4.7259738   -6.8629382   -0.2653136 
H    -5.3312648   -5.3538189    0.4754185 
H    -1.7890292   -1.3641035   -2.9254591 
H    -0.5117500   -1.3373843   -5.0508516 
H     2.0022916   -1.3026711   -4.9961643 
H     4.5541910   -4.4304820   -2.1172806 
H     5.1466681   -2.9439124   -1.2989254 
H     5.0224245   -2.3714710   -3.6744566 
H     3.4052389   -3.1361364   -3.8460916 
H     4.4449142   -3.3832767    1.1729538 
H     4.4162124   -1.5302338    2.8799036 
H     3.0326452    0.4783395    2.4850066 
H     3.4425661    1.5008478   -1.2707604 
H     4.0171883    0.3289539   -4.7366396 
H     5.1779865    1.4107417   -5.5709240 
H     3.4244471    1.6300649   -5.8158136 
H     5.4459380    3.8376968   -4.7937724 
H     4.4241812    4.4773703   -3.4712977 
H     3.7061541    4.1165766   -5.0657596 
H     5.1405914    0.8599536   -2.5328460 
H     6.2643170    1.9553020   -3.3856269 
H     5.3315504    2.5606852   -1.9934801 
H     1.7717945    2.9778105   -4.9602318 
H    -0.8105646    2.0975108   -1.6094516 
H    -1.4735138    3.7674277   -6.1797977 
H     0.1149572    4.3604510   -5.6327688 
H    -0.0656217    2.6762200   -6.2154185 
H    -0.9242784    5.0534408   -3.3587267 
H    -2.4907950    4.5409164   -4.0598392 
H    -1.9662672    3.8984863   -2.4813578 
H    -1.4461991    1.0020805   -4.8804313 
H    -2.8239548    2.1424924   -4.8224257 
H    -2.1696259    1.4426702   -3.3154468 
H     2.5098222    3.7631166   -0.2309060 
H     3.6470343    7.1445267    2.7801912 
H     4.0488870    7.9847032    1.2626589 
H     2.4035838    7.3295166    1.5100729 
H     5.6663260    5.5449129    2.3534009 
H     6.0174485    6.4237604    0.8379073 
H     5.7723899    4.6500422    0.8112476 
H     2.5960783    6.0453166   -0.7152531 
H     4.2043511    6.8023719   -0.8884544 
H     4.0397909    5.0363040   -1.0322339 
H     3.6519206    5.1742250    3.6785217 
H     1.2637205    1.6041495    3.2836954 
H     1.9038998    1.1067420    5.3204152 
H     0.5227043    2.2454775    5.3948808 
H     1.5967172    2.0428436    6.8019533 
H     0.9716911    4.7937976    5.5753120 
H     2.0383809    4.4592871    6.9683702 
H     2.6476431    5.4085704    5.5901912 
H     4.6290924    3.7409744    5.3519660 
H     3.9947104    2.8265599    6.7494250 
H     4.3005058    1.9932504    5.1940331 
