197
Energy =
C    -1.6503670    2.6867241    1.9070504 
C    -2.8001492    1.8433051    1.8059434 
C    -2.8278476    0.5571264    2.3887452 
H    -3.6020868    2.1104726    1.1059590 
Pd   -1.0678026    0.7644888    0.9595762 
P    -0.9913941   -1.3090759   -0.0972917 
P     1.1251567    1.2704867    0.3650953 
H    -1.0590927    2.6380966    2.8306673 
H    -2.0924019    0.3381887    3.1803204 
C    -1.0923152    6.2839175   -0.4001403 
C    -0.3488105    6.0583956    0.7671423 
C    -0.5427834    4.8919111    1.5173588 
C    -1.4845795    3.9195453    1.1118271 
C    -2.2254678    4.1587596   -0.0709744 
C    -2.0367960    5.3284797   -0.8123252 
H    -0.9412434    7.1972464   -0.9846216 
H     0.3868129    6.7971356    1.1000009 
H     0.0453484    4.7247531    2.4260793 
H    -2.9496933    3.4159178   -0.4231190 
H    -2.6259305    5.4955524   -1.7200658 
C    -6.0745116   -2.2469116    2.1197702 
C    -4.7805280   -2.6820189    2.4463171 
C    -3.7339287   -1.7608395    2.5451984 
C    -3.9545299   -0.3866827    2.2972198 
C    -5.2638018    0.0397547    1.9804579 
C    -6.3132886   -0.8821078    1.8991233 
H    -6.8961023   -2.9665589    2.0472835 
H    -4.5849994   -3.7452600    2.6201285 
H    -2.7235244   -2.1089645    2.7857632 
H    -5.4705721    1.1045569    1.8332274 
H    -7.3262341   -0.5323516    1.6752406 
C    -0.1323738   -4.2367844    5.2838593 
C     0.8351155   -3.3069402    4.5070366 
C     2.3001228   -3.6787773    4.8464007 
C     0.5928158   -1.8487107    4.9551482 
C     0.5823554   -3.4873944    2.9980009 
C     0.0046346   -2.4736026    2.2153109 
C     0.9120504   -4.6953360    2.3525599 
C     0.7165946   -4.9139380    0.9722365 
C     1.1459494   -6.2486038    0.3340531 
C     0.3366747   -7.4014825    0.9807772 
C     0.8995449   -6.2628421   -1.1895082 
C     2.6622188   -6.4612225    0.5791150 
C     0.1388171   -3.8769569    0.2213393 
C    -0.2302457   -2.6718749    0.8455340 
C    -2.6570115   -1.8508908   -0.6309069 
C    -3.0410465   -3.2004742   -0.6739424 
C    -4.2951319   -3.5643591   -1.1937503 
C    -4.7565819   -5.0333989   -1.2683357 
C    -4.9878962   -5.4139187   -2.7536933 
C    -6.0789568   -5.2004403   -0.4772469 
C    -3.7096131   -5.9998356   -0.6735610 
C    -5.1325670   -2.5368102   -1.6747040 
C    -4.7809404   -1.1730590   -1.6326963 
C    -3.5310228   -0.8450529   -1.0806600 
C    -5.6989815   -0.0981576   -2.2471971 
C    -5.5183868   -0.1498637   -3.7877703 
C    -5.3328048    1.3194938   -1.7527195 
C    -7.1810733   -0.3664174   -1.8923744 
C    -0.0390251   -1.2370261   -1.6820246 
C    -0.7333652   -1.1915481   -2.9065773 
C    -0.0387888   -1.1037894   -4.1186952 
C     1.3584427   -1.0935375   -4.1241298 
C     1.3816503   -1.2033224   -1.6682729 
C     2.0564188   -1.1758509   -2.9104520 
C     2.2008758   -1.2501874   -0.4197211 
C     3.0591628   -2.3577756   -0.2280087 
O     3.1115848   -3.3463180   -1.1928147 
C     4.2868181   -3.3017076   -2.0304621 
C     4.0052801   -2.4810827   -3.2872292 
O     3.4385035   -1.2026973   -2.9292082 
C     3.8376481   -2.4946170    0.9302246 
C     3.8221558   -1.4828361    1.8933580 
C     3.0276505   -0.3462499    1.7017812 
C     2.2104936   -0.2201732    0.5612662 
C     1.4278105    1.8512527   -1.3356582 
C     2.7416182    1.9039638   -1.8380493 
C     2.9780957    2.3436027   -3.1495879 
C     4.3936932    2.4146004   -3.7527195 
C     4.7050337    3.8813367   -4.1449706 
C     5.4663055    1.9281397   -2.7555000 
C     4.4540676    1.5080423   -5.0093415 
C     1.8596340    2.7098733   -3.9279182 
C     0.5335199    2.6432856   -3.4596019 
C     0.3330188    2.2139210   -2.1348656 
C    -0.6379434    3.0614335   -4.3694892 
C    -0.4782888    2.4407756   -5.7791995 
C    -0.6333594    4.6082924   -4.4823831 
C    -1.9956596    2.6005228   -3.7942981 
C     1.8495871    2.5199682    1.4955350 
C     2.5686740    3.6313351    1.0232436 
C     3.0967746    4.5739989    1.9229038 
C     3.9408226    5.7694248    1.4381736 
C     5.4231867    5.4853979    1.7989044 
C     3.8284590    5.9694201   -0.0894610 
C     3.4871469    7.0762508    2.1348285 
C     2.8737290    4.3726214    3.3025326 
C     2.1408108    3.2808007    3.8055175 
C     1.6267148    2.3594543    2.8737545 
C     1.8978937    3.0506799    5.3100798 
C     2.3859817    4.2372542    6.1668218 
C     2.6661038    1.7745056    5.7425706 
C     0.3817068    2.8528147    5.5673798 
H     0.0244190   -4.1343744    6.3726835 
H    -1.1835859   -3.9827528    5.0595890 
H     0.0266967   -5.2953432    5.0142060 
H     2.4878586   -3.5383158    5.9255239 
H     2.5248834   -4.7312746    4.6042160 
H     3.0038400   -3.0412907    4.2843504 
H     0.8281122   -1.7419929    6.0279600 
H    -0.4602400   -1.5436397    4.8175698 
H     1.2352113   -1.1454635    4.3953040 
H    -0.2485879   -1.5028918    2.6503428 
H     1.3592996   -5.4988286    2.9471459 
H    -0.7461465   -7.2599503    0.8145755 
H     0.6307843   -8.3700109    0.5384919 
H     0.5095014   -7.4617370    2.0694033 
H     1.2351035   -7.2266978   -1.6097101 
H     1.4603573   -5.4554858   -1.6914462 
H    -0.1725161   -6.1515410   -1.4316199 
H     2.9039840   -6.4969501    1.6554925 
H     2.9904822   -7.4154169    0.1297063 
H     3.2371838   -5.6392557    0.1195006 
H     0.0011406   -3.9816850   -0.8571354 
H    -2.3587504   -3.9620082   -0.2934061 
H    -5.3146154   -6.4661761   -2.8323265 
H    -4.0580083   -5.2953557   -3.3373037 
H    -5.7654662   -4.7842749   -3.2196079 
H    -5.9301015   -4.9538550    0.5878480 
H    -6.4340215   -6.2441197   -0.5443643 
H    -6.8766457   -4.5464821   -0.8693751 
H    -4.0833628   -7.0362263   -0.7360799 
H    -3.5065504   -5.7801818    0.3898845 
H    -2.7528705   -5.9576285   -1.2237861 
H    -6.1016697   -2.8129423   -2.1013698 
H    -3.2087918    0.1994259   -1.0115886 
H    -6.1616731    0.6027323   -4.2785644 
H    -4.4693975    0.0581006   -4.0651574 
H    -5.7861429   -1.1445126   -4.1849731 
H    -4.3222437    1.6232730   -2.0756519 
H    -6.0434540    2.0544815   -2.1678132 
H    -5.3818585    1.3807860   -0.6515291 
H    -7.5410569   -1.3227357   -2.3077548 
H    -7.8191607    0.4321120   -2.3095306 
H    -7.3244666   -0.3915161   -0.7990492 
H    -1.8253568   -1.2361094   -2.9150121 
H    -0.5929814   -1.0583914   -5.0614690 
H     1.9250328   -1.0319553   -5.0578114 
H     4.5352194   -4.3430631   -2.2987277 
H     5.1287989   -2.8679226   -1.4609801 
H     4.9433486   -2.2804711   -3.8330752 
H     3.3094802   -3.0184377   -3.9569216 
H     4.4543067   -3.3897903    1.0523521 
H     4.4431223   -1.5674879    2.7908041 
H     3.0610473    0.4564001    2.4420170 
H     3.5672814    1.5744938   -1.2030270 
H     3.9876682    4.2657004   -4.8907262 
H     5.7168666    3.9536377   -4.5821049 
H     4.6621698    4.5414798   -3.2606008 
H     6.4629035    1.9826358   -3.2267411 
H     5.2861629    0.8809916   -2.4559211 
H     5.4944878    2.5553974   -1.8462309 
H     3.7338143    1.8293927   -5.7816937 
H     5.4635323    1.5437793   -5.4565913 
H     4.2264296    0.4645672   -4.7328605 
H     2.0327283    3.0510375   -4.9534875 
H    -0.6720975    2.1390374   -1.7109639 
H    -1.3391120    2.7177546   -6.4128567 
H     0.4328126    2.7959519   -6.2897442 
H    -0.4300173    1.3400691   -5.7201320 
H     0.3085692    4.9690389   -4.9313223 
H    -1.4699832    4.9529321   -5.1169741 
H    -0.7339692    5.0715971   -3.4859242 
H    -2.0157419    1.5067628   -3.6411686 
H    -2.8084926    2.8627769   -4.4934944 
H    -2.2181537    3.0885744   -2.8308658 
H     2.7033200    3.7593622   -0.0516558 
H     5.7752647    4.5614404    1.3071979 
H     6.0659840    6.3210745    1.4688004 
H     5.5530611    5.3626977    2.8884426 
H     4.2325838    5.1082471   -0.6502313 
H     4.4081652    6.8587974   -0.3904568 
H     2.7801106    6.1226149   -0.4020202 
H     3.6146859    7.0312206    3.2297046 
H     4.0882232    7.9264839    1.7680254 
H     2.4253808    7.2909773    1.9238248 
H     3.2861502    5.0988732    4.0062861 
H     1.0392785    1.5010727    3.2215290 
H     1.8759028    5.1764044    5.8887921 
H     3.4750941    4.3907264    6.0720677 
H     2.1718209    4.0398157    7.2311848 
H     3.7501457    1.8931912    5.5704896 
H     2.5059191    1.5736292    6.8169423 
H     2.3253908    0.8885786    5.1785863 
H    -0.0105249    1.9573842    5.0527784 
H     0.1924693    2.7191230    6.6469210 
H    -0.1952152    3.7292655    5.2228967 
