200
Energy =
C     0.7505369   -2.9230606    2.1968907 
C     0.6035561   -1.9742265    3.2565304 
C    -0.6316135   -1.3340653    3.5001070 
H     1.4980763   -1.6013899    3.7721611 
Pd    0.0707382   -0.9821879    1.3587657 
P    -0.5373920    1.2410105    0.9941492 
P     0.2704448   -1.4437938   -0.9142570 
H    -0.1143574   -3.5573793    1.9602958 
H    -1.5356964   -1.7985454    3.0733948 
C     4.5425712   -4.5261628    0.9257645 
C     4.4909361   -3.2746922    1.5635897 
C     3.2656734   -2.7450036    1.9786790 
C     2.0596919   -3.4559746    1.7702938 
C     2.1267650   -4.7090413    1.1227439 
C     3.3547671   -5.2395522    0.7097229 
H     5.5029011   -4.9390832    0.6002428 
H     5.4124365   -2.7087568    1.7362529 
H     3.2417240   -1.7596132    2.4576883 
H     1.2045680   -5.2690162    0.9399315 
H     3.3800229   -6.2171981    0.2172865 
C    -1.4274067    1.5973480    6.5396932 
C    -2.3022466    1.4386355    5.4535668 
C    -2.0378189    0.4773475    4.4738426 
C    -0.8815724   -0.3330166    4.5493394 
C    -0.0130782   -0.1674306    5.6514804 
C    -0.2876172    0.7852262    6.6382618 
H    -1.6370708    2.3434270    7.3126672 
H    -3.1935710    2.0689868    5.3683597 
H    -2.7179898    0.3666675    3.6221004 
H     0.8633415   -0.8142538    5.7586002 
H     0.3837996    0.8854120    7.4971664 
C     4.0676363    3.5456164    3.9683954 
C     3.0580514    2.5995976    4.6713717 
C     3.0433593    2.8998481    6.1893263 
C     3.5240863    1.1392232    4.4748964 
C     1.6709834    2.8454275    4.0450137 
C     1.1617898    2.0113919    3.0344419 
C     0.8956915    3.9617364    4.4159976 
C    -0.3499393    4.2644873    3.8286811 
C    -1.1394273    5.5059568    4.2894358 
C    -1.4245072    5.4082608    5.8095486 
C    -0.2933723    6.7729749    4.0002985 
C    -2.4890770    5.6396710    3.5516359 
C    -0.8188040    3.4175205    2.8100678 
C    -0.0604499    2.3076349    2.4049538 
C    -2.3098792    1.5080074    0.6517894 
C    -2.7865683    2.7412396    0.1732337 
C    -4.1594374    2.9249102   -0.0616590 
C    -4.7332777    4.2602775   -0.5722179 
C    -5.5492875    4.0059709   -1.8650583 
C    -3.6187549    5.2777490   -0.8957652 
C    -5.6554022    4.8601547    0.5200898 
C    -5.0200489    1.8341329    0.1813528 
C    -4.5653809    0.5738425    0.6169375 
C    -3.1883993    0.4311485    0.8543321 
C    -5.5549266   -0.5861446    0.8360581 
C    -6.4278635   -0.2627961    2.0758221 
C    -6.4595261   -0.7517205   -0.4107373 
C    -4.8199397   -1.9231446    1.0754539 
C     0.3423434    2.0081794   -0.4382304 
C     1.3826489    2.9335103   -0.2199132 
C     2.0736102    3.4906211   -1.3029270 
C     1.7378131    3.1367373   -2.6139555 
C    -0.0111374    1.6375112   -1.7596297 
C     0.6909701    2.2296122   -2.8371856 
C    -1.1363093    0.7129354   -2.1012227 
C    -2.2398452    1.2748352   -2.7901240 
O    -2.1911894    2.6290078   -3.0094960 
C    -2.5197334    3.1272767   -4.3211655 
C    -1.5534862    2.6302518   -5.4002263 
C    -0.0723994    2.8284250   -5.0652401 
O     0.3435595    1.8335552   -4.1024852 
C    -3.3334676    0.4874445   -3.1794382 
C    -3.3161935   -0.8866671   -2.9178919 
C    -2.2253253   -1.4723401   -2.2645302 
C    -1.1351253   -0.6822774   -1.8476445 
C     1.7772998   -0.8416948   -1.7448602 
C     2.8463440   -0.3767178   -0.9638575 
C     4.0252436    0.0835505   -1.5770134 
C     5.2254808    0.6023832   -0.7619406 
C     5.7214494    1.9512389   -1.3395843 
C     6.3627218   -0.4486088   -0.8432303 
C     4.8518277    0.8251445    0.7194011 
C     4.0901903    0.0317463   -2.9828900 
C     3.0279994   -0.4219235   -3.7924596 
C     1.8570882   -0.8519248   -3.1494336 
C     3.1723558   -0.4228457   -5.3258952 
C     4.3193818   -1.3858675   -5.7251887 
C     3.5013429    1.0142842   -5.8042899 
C     1.8745629   -0.8812536   -6.0239473 
C     0.1697953   -3.2411796   -1.2714130 
C    -0.8400304   -3.9935697   -0.6334835 
C    -0.9384454   -5.3778942   -0.8360192 
C    -2.0114056   -6.2401287   -0.1427848 
C    -2.9596481   -5.3932759    0.7317848 
C    -1.3111414   -7.2848163    0.7645003 
C    -2.8580755   -6.9676101   -1.2183168 
C     0.0101317   -5.9874708   -1.6906629 
C     1.0318022   -5.2676087   -2.3320568 
C     1.0993787   -3.8777204   -2.1022353 
C     2.0204102   -5.9274379   -3.3137304 
C     1.4954203   -5.6686823   -4.7515359 
C     3.4350113   -5.3107822   -3.1768008 
C     2.1289450   -7.4504272   -3.0809443 
H     5.0816544    3.4094867    4.3861193 
H     3.7780508    4.6024634    4.1026132 
H     4.1090780    3.3375400    2.8844728 
H     4.0315158    2.6745606    6.6268975 
H     2.8267440    3.9603026    6.4018998 
H     2.2862669    2.2848703    6.7047151 
H     4.4919562    0.9849219    4.9817920 
H     3.6698286    0.8890218    3.4104857 
H     2.7959326    0.4292145    4.9040485 
H     1.7177044    1.1250839    2.7105261 
H     1.2766178    4.6256111    5.1977812 
H    -1.9628873    6.3088104    6.1546678 
H    -2.0479821    4.5261229    6.0327089 
H    -0.4944534    5.3252506    6.3977085 
H     0.6673575    6.7534005    4.5432735 
H    -0.0737827    6.8588502    2.9215078 
H    -0.8410442    7.6788729    4.3159669 
H    -2.3512442    5.7614233    2.4626852 
H    -3.1369092    4.7611041    3.7215991 
H    -3.0274753    6.5297731    3.9198809 
H    -1.7788066    3.6115440    2.3298872 
H    -2.0730503    3.5396716   -0.0413267 
H    -6.4063795    3.3341394   -1.6874416 
H    -4.9091847    3.5467812   -2.6372796 
H    -5.9465002    4.9576781   -2.2602283 
H    -3.0388944    5.5489763    0.0041607 
H    -2.9205338    4.8786930   -1.6514407 
H    -4.0660193    6.2055480   -1.2921375 
H    -6.4906575    4.1807186    0.7638024 
H    -6.0861314    5.8174533    0.1757999 
H    -5.0883645    5.0499286    1.4486102 
H    -6.0923800    1.9682662    0.0052919 
H    -2.7691416   -0.5267228    1.1746185 
H    -5.7997778   -0.1494011    2.9773490 
H    -7.1546138   -1.0744331    2.2597082 
H    -6.9920186    0.6754388    1.9340555 
H    -5.8505455   -0.9496046   -1.3095866 
H    -7.1546316   -1.5976893   -0.2665027 
H    -7.0682579    0.1482832   -0.6017769 
H    -4.1502903   -2.1674888    0.2317341 
H    -5.5533864   -2.7413337    1.1772367 
H    -4.2185282   -1.9055868    2.0021257 
H     1.6459758    3.2293237    0.7988875 
H     2.8810701    4.2071338   -1.1208138 
H     2.2838252    3.5504702   -3.4669326 
H    -3.5643659    2.8787376   -4.5892175 
H    -2.4568377    4.2219085   -4.2077109 
H    -1.7199381    1.5554999   -5.5963756 
H    -1.7875415    3.1684507   -6.3380631 
H     0.1232946    3.8426160   -4.6700367 
H     0.5451749    2.6799189   -5.9678045 
H    -4.1890559    0.9473933   -3.6814176 
H    -4.1582468   -1.5112490   -3.2333003 
H    -2.2164764   -2.5520221   -2.0972692 
H     2.7326029   -0.3671632    0.1234997 
H     6.5658349    2.3328937   -0.7387820 
H     6.0745628    1.8522352   -2.3800577 
H     4.9139971    2.7030396   -1.3226345 
H     6.6876504   -0.6033527   -1.8868846 
H     7.2391440   -0.1165746   -0.2576729 
H     6.0232463   -1.4210227   -0.4462648 
H     4.5765871   -0.1200726    1.2167644 
H     5.7126784    1.2477195    1.2657785 
H     4.0060609    1.5287314    0.8184682 
H     5.0075876    0.3721985   -3.4739628 
H     0.9902216   -1.1782254   -3.7282706 
H     5.2818007   -1.0810413   -5.2785693 
H     4.0997635   -2.4151016   -5.3898451 
H     4.4447207   -1.3994516   -6.8226846 
H     3.5839004    1.0428731   -6.9054273 
H     4.4555499    1.3788094   -5.3867044 
H     2.7030605    1.7085617   -5.4920890 
H     1.0263181   -0.2266937   -5.7589278 
H     1.6117411   -1.9202428   -5.7555059 
H     2.0089154   -0.8464802   -7.1189464 
H    -1.5396882   -3.4810178    0.0336946 
H    -2.4169459   -4.8698485    1.5398933 
H    -3.7094337   -6.0473880    1.2088374 
H    -3.5040469   -4.6403261    0.1358063 
H    -2.0618963   -7.9233166    1.2631606 
H    -0.6391364   -7.9423477    0.1868718 
H    -0.7109093   -6.7869343    1.5470124 
H    -3.3606995   -6.2397296   -1.8794102 
H    -3.6326216   -7.5910372   -0.7373138 
H    -2.2383829   -7.6283715   -1.8481708 
H    -0.0553776   -7.0668394   -1.8498522 
H     1.8908175   -3.2893222   -2.5695807 
H     1.4282648   -4.5850183   -4.9558791 
H     2.1750269   -6.1191567   -5.4972766 
H     0.4903960   -6.1044659   -4.8889227 
H     4.1367285   -5.8381098   -3.8461876 
H     3.8110409   -5.3932483   -2.1431150 
H     3.4540858   -4.2441295   -3.4593053 
H     1.1770308   -7.9711533   -3.2829250 
H     2.4348403   -7.6777586   -2.0440011 
H     2.8846312   -7.8789643   -3.7613866 
