206
Energy =
C    -0.6357071   -3.7616307    0.4624325 
C    -1.9904972   -3.3570538    0.4725096 
C    -2.5704172   -2.7702459   -0.6996488 
H    -2.5341686   -3.3277887    1.4246499 
Pd   -0.8443724   -1.5531669   -0.0335668 
P    -0.9467977    0.2464247   -1.5149737 
P     0.8391192   -0.6285857    1.2806869 
H    -0.1802867   -3.9240398   -0.5278755 
H    -2.2142105   -3.1305858   -1.6740081 
C     1.7999005   -5.2867283    3.6525043 
C     2.3301459   -5.0967247    2.3676979 
C     1.5140264   -4.6087696    1.3435916 
C     0.1553652   -4.2921095    1.5799786 
C    -0.3621854   -4.4848108    2.8813114 
C     0.4534554   -4.9767127    3.9046236 
H     2.4328576   -5.6798944    4.4543441 
H     3.3795972   -5.3320734    2.1619714 
H     1.9312403   -4.4606833    0.3427824 
H    -1.4093286   -4.2547976    3.0958093 
H     0.0376510   -5.1164145    4.9073347 
C    -6.3535082   -0.7128130   -0.8385236 
C    -5.7456799   -0.9734167    0.4010647 
C    -4.5218426   -1.6464248    0.4589647 
C    -3.8798924   -2.0915151   -0.7216946 
C    -4.5077751   -1.8309958   -1.9613304 
C    -5.7275181   -1.1458882   -2.0164350 
H    -7.3087940   -0.1797919   -0.8831876 
H    -6.2272923   -0.6443489    1.3278970 
H    -4.0528033   -1.8149232    1.4332119 
H    -4.0268263   -2.1624106   -2.8880650 
H    -6.1936697   -0.9523692   -2.9876411 
C    -3.4216655   -1.8165588    4.3044803 
C    -2.3520600   -1.7413714    5.4144193 
C    -2.5983380   -0.4652842    6.2609279 
C    -2.5073269   -2.9972034    6.3077296 
C    -0.9259296   -1.6656988    4.8334448 
C    -0.6766599   -1.3146919    3.4956019 
C     0.1888140   -1.9172963    5.6575826 
C     1.5154163   -1.8841733    5.1880788 
C     2.6872411   -2.1442235    6.1552736 
C     2.4148859   -3.3955142    7.0260986 
C     4.0160457   -2.3580976    5.3989096 
C     2.8298381   -0.9029154    7.0755237 
C     1.7270724   -1.5450117    3.8382057 
C     0.6431444   -1.2286685    3.0056806 
C     2.5589343   -0.9284759    0.7484897 
C     3.6508918   -0.3277871    1.4004158 
C     4.9657450   -0.6393400    1.0102357 
C     6.1971754   -0.0871673    1.7557349 
C     6.8616880   -1.2583221    2.5268248 
C     5.8089424    1.0172703    2.7619717 
C     7.2187243    0.5039490    0.7529137 
C     5.1358367   -1.5274380   -0.0714430 
C     4.0599107   -2.0972949   -0.7808095 
C     2.7620694   -1.7887601   -0.3434014 
C     4.3232384   -3.0442310   -1.9671036 
C     3.0207366   -3.3956112   -2.7175504 
C     5.2910124   -2.3707130   -2.9723996 
C     4.9602085   -4.3509286   -1.4275379 
C     0.6715223    1.2029780    1.4305965 
C     0.1907846    1.7875328    2.6194556 
C     0.0184147    3.1737417    2.6917688 
C     0.3296382    3.9927915    1.6013595 
C     0.9787363    2.0111328    0.3102741 
C     0.8205153    3.4174104    0.4155878 
C     1.5398707    1.4787129   -0.9689506 
C     2.8933849    1.7918150   -1.2603971 
O     3.5557669    2.4900990   -0.2939603 
C     4.7362344    3.2275089   -0.6620718 
C     4.4166400    4.4623818   -1.5202484 
C     4.0950876    5.7418477   -0.7269539 
C     2.8553123    5.7169986    0.1856758 
C     1.5118023    5.5228814   -0.5375124 
O     1.1574950    4.1354177   -0.6954866 
C     3.4793096    1.3764433   -2.4695179 
C     2.7137618    0.6658294   -3.3996102 
C     1.3741859    0.3581132   -3.1402890 
C     0.7826740    0.7584357   -1.9250361 
C    -1.8231181    1.7646046   -1.0133440 
C    -2.5991736    1.7386978    0.1568458 
C    -3.3067511    2.8838239    0.5632231 
C    -4.1642421    2.9139126    1.8426721 
C    -3.8299810    4.1750038    2.6776336 
C    -3.9098071    1.6729571    2.7231619 
C    -5.6592447    2.9408836    1.4314021 
C    -3.2364189    4.0204451   -0.2649650 
C    -2.4658443    4.0761315   -1.4441584 
C    -1.7345911    2.9298126   -1.7985051 
C    -2.4791032    5.3503548   -2.3114894 
C    -3.8981728    5.5184843   -2.9152987 
C    -2.1484381    6.5910734   -1.4452418 
C    -1.4535931    5.2690422   -3.4618917 
C    -1.6779824   -0.3035498   -3.1078632 
C    -1.2641750   -1.5586304   -3.5997546 
C    -1.8181922   -2.0938988   -4.7728518 
C    -1.4358077   -3.4876642   -5.3063438 
C    -2.6925444   -4.3953210   -5.2577256 
C    -0.9322998   -3.3664016   -6.7667553 
C    -0.3240747   -4.1456517   -4.4623870 
C    -2.7905400   -1.3219177   -5.4437184 
C    -3.2276131   -0.0671120   -4.9805028 
C    -2.6625087    0.4291833   -3.7882907 
C    -4.2694860    0.7324442   -5.7881393 
C    -3.6173369    1.1661215   -7.1275086 
C    -4.7344482    1.9958111   -5.0337651 
C    -5.5104812   -0.1466481   -6.0831187 
H    -3.4206607   -0.9187568    3.6663248 
H    -3.2697909   -2.7025755    3.6619849 
H    -4.4253702   -1.8990551    4.7551547 
H    -2.5155138    0.4400627    5.6337605 
H    -1.8609511   -0.3831788    7.0783852 
H    -3.6082759   -0.4855711    6.7087600 
H    -3.5420581   -3.0650048    6.6866095 
H    -2.2900339   -3.9173402    5.7365316 
H    -1.8381685   -2.9729519    7.1840836 
H    -1.5055298   -1.0931224    2.8141026 
H     0.0148407   -2.1620721    6.7092341 
H     3.2673198   -3.5749079    7.7044699 
H     2.2791264   -4.2918069    6.3981912 
H     1.5152198   -3.2782727    7.6537839 
H     3.9420244   -3.1905680    4.6771646 
H     4.8204588   -2.5952921    6.1160796 
H     4.3238015   -1.4519974    4.8491918 
H     3.0303057    0.0049322    6.4795231 
H     1.9081084   -0.7307253    7.6584164 
H     3.6641635   -1.0435735    7.7861331 
H     2.7381316   -1.5208993    3.4295785 
H     3.4617832    0.3869943    2.2044021 
H     7.7450816   -0.8995513    3.0850598 
H     7.1936597   -2.0540110    1.8373237 
H     6.1549875   -1.7062269    3.2464813 
H     6.7168763    1.4241936    3.2393826 
H     5.2799395    1.8482697    2.2631846 
H     5.1591691    0.6305607    3.5667506 
H     6.7711153    1.3290650    0.1744542 
H     7.5848701   -0.2533935    0.0391455 
H     8.0958135    0.8993874    1.2948468 
H     6.1550735   -1.7812702   -0.3801509 
H     1.8835363   -2.1929995   -0.8534489 
H     3.2497127   -4.0362891   -3.5863468 
H     2.5132962   -2.4865527   -3.0854528 
H     2.3112014   -3.9533382   -2.0801283 
H     4.8656342   -1.4232039   -3.3451232 
H     6.2708882   -2.1495771   -2.5159727 
H     5.4687706   -3.0372298   -3.8348414 
H     5.1662307   -5.0517762   -2.2563475 
H     5.9126003   -4.1484724   -0.9075176 
H     4.2835181   -4.8518818   -0.7123834 
H    -0.0323861    1.1652739    3.4894602 
H    -0.3510292    3.6265595    3.6176075 
H     0.1951181    5.0737883    1.6808377 
H     5.4513142    2.5574449   -1.1724374 
H     5.1893522    3.5126930    0.3014925 
H     5.2938430    4.6691488   -2.1607223 
H     3.5896523    4.2047979   -2.2083740 
H     4.9747509    5.9980791   -0.1054671 
H     3.9836471    6.5754325   -1.4468606 
H     2.9502808    4.9344534    0.9616021 
H     2.8133880    6.6798863    0.7273538 
H     0.6986839    6.0589141   -0.0159474 
H     1.5463607    5.9120016   -1.5681680 
H     4.5224566    1.6097836   -2.6934322 
H     3.1669163    0.3574033   -4.3474980 
H     0.7866019   -0.1751985   -3.8911558 
H    -2.6290785    0.8164826    0.7433298 
H    -4.4239381    4.1810269    3.6087497 
H    -2.7599226    4.1917145    2.9465238 
H    -4.0602812    5.1063281    2.1328404 
H    -4.5045700    1.7396944    3.6507739 
H    -2.8448395    1.5915954    3.0043721 
H    -4.2043748    0.7452467    2.2056090 
H    -6.3062858    2.9530187    2.3272203 
H    -5.9121876    2.0521264    0.8277059 
H    -5.8916344    3.8374758    0.8305997 
H    -3.8087858    4.9081401    0.0228867 
H    -1.0886366    2.9280902   -2.6796510 
H    -4.6618845    5.6205962   -2.1247012 
H    -3.9410481    6.4223292   -3.5492808 
H    -4.1674808    4.6467472   -3.5356843 
H    -2.8849994    6.7394876   -0.6373542 
H    -2.1515313    7.5019363   -2.0696549 
H    -1.1521861    6.4931697   -0.9834533 
H    -1.4590170    6.2119145   -4.0354827 
H    -1.6929251    4.4525203   -4.1661359 
H    -0.4313446    5.1044038   -3.0785498 
H    -0.5106482   -2.1206559   -3.0392221 
H    -3.5097991   -3.9918742   -5.8799883 
H    -3.0683224   -4.4885582   -4.2228799 
H    -2.4507823   -5.4068580   -5.6296666 
H    -0.0405841   -2.7173761   -6.8212610 
H    -0.6607149   -4.3618547   -7.1604069 
H    -1.7034342   -2.9422991   -7.4322400 
H     0.5996273   -3.5419051   -4.4617354 
H    -0.0770131   -5.1366484   -4.8798683 
H    -0.6385294   -4.2999952   -3.4139877 
H    -3.2306467   -1.7224563   -6.3626278 
H    -2.9961749    1.3827869   -3.3766706 
H    -4.3360851    1.7457089   -7.7340742 
H    -2.7298023    1.7970941   -6.9445022 
H    -3.2970599    0.2923484   -7.7214198 
H    -3.8992236    2.6971698   -4.8627694 
H    -5.1824965    1.7467846   -4.0554129 
H    -5.4954164    2.5273514   -5.6304261 
H    -5.2532419   -1.0434436   -6.6719810 
H    -5.9898083   -0.4804108   -5.1468836 
H    -6.2532931    0.4293491   -6.6624296 
