197
Energy =
C    -0.4373490   -3.2346223    1.7847107 
C    -0.5865401   -3.7448299    0.4602103 
C     0.4818213   -3.6994092   -0.4640529 
H    -1.5865828   -4.0207967    0.1006122 
Pd   -0.0319848   -1.6131476    0.3048588 
P     0.3625122   -0.2975099   -1.5835459 
P    -0.0355739    0.2459381    1.7022534 
H     0.5604046   -3.3091322    2.2391292 
H     1.4955912   -3.5591496   -0.0551421 
C    -3.6467330   -2.9760463    4.6447970 
C    -2.3217810   -3.1535433    5.0678933 
C    -1.2885594   -3.2295695    4.1274973 
C    -1.5538769   -3.1290306    2.7446650 
C    -2.8935506   -2.9397158    2.3326746 
C    -3.9271879   -2.8702105    3.2721787 
H    -4.4581714   -2.9165558    5.3774832 
H    -2.0874545   -3.2338184    6.1345307 
H    -0.2583364   -3.3702439    4.4644707 
H    -3.1248454   -2.8328888    1.2663811 
H    -4.9586974   -2.7266216    2.9353915 
C     0.4113028   -5.1524077   -4.5090101 
C     1.4105225   -4.2623865   -4.0861070 
C     1.4285682   -3.8015467   -2.7667703 
C     0.4341630   -4.2037553   -1.8461104 
C    -0.5602041   -5.1087264   -2.2811819 
C    -0.5648150   -5.5832584   -3.5974404 
H     0.3989539   -5.5171007   -5.5410914 
H     2.1788806   -3.9228155   -4.7881608 
H     2.2051692   -3.0985421   -2.4474628 
H    -1.3131341   -5.4748079   -1.5759113 
H    -1.3265567   -6.3045124   -3.9104648 
C    -4.9044789    0.7376207   -1.0594486 
C    -5.1627038    1.0470028    0.4367664 
C    -5.5590806   -0.2621134    1.1640120 
C    -6.3401388    2.0383278    0.5348548 
C    -3.8727549    1.6050562    1.0720745 
C    -2.7059329    0.8109354    1.0947068 
C    -3.7961862    2.8865093    1.6425064 
C    -2.6145419    3.4083376    2.2201627 
C    -2.6138303    4.8257997    2.8228846 
C    -3.6405306    4.8794738    3.9831502 
C    -3.0032432    5.8467821    1.7231341 
C    -1.2252614    5.2168319    3.3716368 
C    -1.4732876    2.5967720    2.2169515 
C    -1.5235950    1.3018371    1.6610471 
C     0.2329888   -0.1738817    3.4691513 
C     1.2842510   -1.0579695    3.7974487 
C     1.5523586   -1.3901586    5.1325685 
C     2.7205604   -2.3125320    5.5338718 
C     3.4539717   -2.8875603    4.3035015 
C     3.7346022   -1.4903103    6.3711853 
C     2.1904501   -3.4970483    6.3815568 
C     0.7137995   -0.8379266    6.1297810 
C    -0.3607070    0.0150479    5.8323409 
C    -0.5875122    0.3417844    4.4781620 
C    -1.2637835    0.6427228    6.9121821 
C    -1.0024507    2.1724869    6.9349675 
C    -0.9778217    0.0680274    8.3147539 
C    -2.7536407    0.3848681    6.5709331 
C     1.3712185    1.3768886    1.2627910 
C     2.5518271    1.3366771    2.0303749 
C     3.6554230    2.1312285    1.6997772 
C     3.5844335    3.0053307    0.6134856 
C     1.2862010    2.2553141    0.1457243 
C     2.3987642    3.0863793   -0.1298829 
C     0.0792439    2.4059922   -0.7209577 
C    -0.5474787    3.6724738   -0.7767591 
O    -0.0490024    4.7085500   -0.0093011 
C     0.6742774    5.7115105   -0.7522477 
C     2.1609174    5.3608737   -0.7808095 
O     2.3292896    3.9838866   -1.1790303 
C    -1.6834974    3.8976462   -1.5677057 
C    -2.1864037    2.8658607   -2.3624678 
C    -1.5614075    1.6134138   -2.3604263 
C    -0.4369227    1.3715970   -1.5478234 
C     2.1271928    0.0502985   -1.8972583 
C     2.5237692    1.0722908   -2.7831258 
C     3.8840430    1.3143365   -3.0190732 
C     4.3658522    2.4218210   -3.9752190 
C     5.1815458    1.7772356   -5.1250591 
C     5.2554253    3.4183585   -3.1879116 
C     3.1865048    3.2084875   -4.5856608 
C     4.8287664    0.5077108   -2.3407147 
C     4.4629784   -0.5063851   -1.4399164 
C     3.0862869   -0.7175176   -1.2255957 
C     5.4821139   -1.3853150   -0.6887867 
C     5.2412479   -2.8695704   -1.0691030 
C     5.2807665   -1.2064716    0.8379727 
C     6.9386490   -1.0182372   -1.0381232 
C    -0.3403130   -1.0434622   -3.1004638 
C    -1.5735624   -1.7050672   -2.9651603 
C    -2.2669911   -2.1690627   -4.0960977 
C    -3.6795184   -2.7765165   -3.9888934 
C    -4.0126466   -3.2038861   -2.5415853 
C    -3.8192972   -4.0163771   -4.9044119 
C    -4.6937640   -1.6901647   -4.4361286 
C    -1.6540339   -1.9857711   -5.3515961 
C    -0.3978338   -1.3664405   -5.5143985 
C     0.2508578   -0.8855972   -4.3638890 
C     0.2081423   -1.2112620   -6.9231870 
C    -0.7288478   -0.3174713   -7.7763189 
C     1.6061348   -0.5572807   -6.8825366 
C     0.3409367   -2.6055976   -7.5871370 
H    -5.7965432    0.2703152   -1.5134294 
H    -4.6746876    1.6610145   -1.6159675 
H    -4.0532044    0.0479018   -1.1927915 
H    -6.4981697   -0.6639202    0.7434327 
H    -4.7804024   -1.0341476    1.0511787 
H    -5.7069099   -0.0862085    2.2436329 
H    -7.2367556    1.5962902    0.0671256 
H    -6.1226703    2.9849721    0.0095648 
H    -6.5911058    2.2715473    1.5845079 
H    -2.7042819   -0.1949728    0.6598785 
H    -4.6874210    3.5187297    1.6373374 
H    -3.6542046    5.8873281    4.4350773 
H    -4.6633746    4.6518292    3.6360292 
H    -3.3782608    4.1511554    4.7713529 
H    -3.0231855    6.8686297    2.1424331 
H    -4.0017732    5.6375940    1.3016703 
H    -2.2646452    5.8181789    0.9041813 
H    -0.9037486    4.5453617    4.1877417 
H    -1.2648179    6.2407812    3.7818821 
H    -0.4618796    5.1950367    2.5750227 
H    -0.5287231    2.9616730    2.6268310 
H     1.8904399   -1.4807198    2.9910430 
H     2.7762276   -3.4847802    3.6662220 
H     4.2696105   -3.5531240    4.6341571 
H     3.9053267   -2.0933147    3.6830907 
H     3.2696790   -1.0865179    7.2869255 
H     4.1270146   -0.6402300    5.7855437 
H     4.5860864   -2.1254238    6.6742515 
H     3.0269401   -4.1494566    6.6882746 
H     1.6816705   -3.1525501    7.2978215 
H     1.4755373   -4.1098261    5.8043334 
H     0.9128250   -1.0940941    7.1732155 
H    -1.4135838    1.0057588    4.2124807 
H     0.0539232    2.3880117    7.1726684 
H    -1.6360555    2.6579974    7.6986974 
H    -1.2335812    2.6336838    5.9584613 
H    -1.1339000   -1.0252368    8.3440384 
H     0.0536646    0.2818371    8.6456933 
H    -1.6616262    0.5251112    9.0504322 
H    -3.0386331    0.8266677    5.6003753 
H    -2.9662338   -0.6961055    6.5237067 
H    -3.3999354    0.8348065    7.3452185 
H     2.6104430    0.6904686    2.9085047 
H     4.5672371    2.0738081    2.3027423 
H     4.4299024    3.6412049    0.3350038 
H     0.2680570    5.7767135   -1.7779257 
H     0.5130005    6.6761919   -0.2413602 
H     2.6187994    5.5162877    0.2127872 
H     2.6925861    5.9828100   -1.5213855 
H    -2.1526178    4.8857721   -1.5534184 
H    -3.0631662    3.0366663   -2.9950250 
H    -1.9481620    0.8209716   -3.0052013 
H     1.7582850    1.6908800   -3.2567757 
H     4.5591626    1.0623253   -5.6922107 
H     6.0651028    1.2346787   -4.7462927 
H     5.5377233    2.5554196   -5.8234672 
H     4.6738285    3.8782507   -2.3709461 
H     6.1402146    2.9235095   -2.7513656 
H     5.6155244    4.2188677   -3.8586397 
H     2.5315625    2.5576236   -5.1921164 
H     3.5744069    3.9994003   -5.2506945 
H     2.5779417    3.6875601   -3.7995911 
H     5.8901707    0.6947844   -2.5214767 
H     2.7463785   -1.4758980   -0.5116502 
H     5.9715268   -3.5204949   -0.5563802 
H     4.2307988   -3.2066357   -0.7774383 
H     5.3480904   -3.0198801   -2.1576197 
H     5.4586090   -0.1590895    1.1351082 
H     5.9822739   -1.8523455    1.3956905 
H     4.2551432   -1.4730099    1.1481092 
H     7.6313823   -1.6694174   -0.4777623 
H     7.1473285   -1.1557368   -2.1135911 
H     7.1708522    0.0272707   -0.7688469 
H    -1.9927182   -1.8323232   -1.9615677 
H    -3.2699349   -3.9253676   -2.1583142 
H    -5.0041928   -3.6873915   -2.5149910 
H    -4.0513336   -2.3425692   -1.8520028 
H    -3.0750219   -4.7855680   -4.6397669 
H    -4.8272144   -4.4535024   -4.7955197 
H    -3.6856261   -3.7626013   -5.9695811 
H    -4.6174401   -0.7948713   -3.7942367 
H    -5.7272070   -2.0761135   -4.3718358 
H    -4.5068577   -1.3793450   -5.4788039 
H    -2.1786830   -2.3400322   -6.2442435 
H     1.2202414   -0.3907540   -4.4413504 
H    -0.3142673   -0.1881988   -8.7919744 
H    -0.8407839    0.6808134   -7.3178838 
H    -1.7343932   -0.7614286   -7.8764034 
H     2.3188510   -1.1518042   -6.2833534 
H     2.0101228   -0.4812897   -7.9065573 
H     1.5701210    0.4636508   -6.4627903 
H     0.7560694   -2.5043201   -8.6055328 
H    -0.6342484   -3.1153637   -7.6703935 
H     1.0147551   -3.2548302   -7.0024968 
