206
Energy =
C     0.3327692    1.3780264   -3.6105859 
C    -0.7876773    0.5183976   -3.8339931 
C    -2.0204318    0.7664106   -3.1865347 
H    -0.6467456   -0.4236627   -4.3781423 
Pd   -0.3315993    0.4857651   -1.6812656 
P    -1.4546450   -0.7729387   -0.0829787 
P     1.3784923    1.1135430   -0.2294494 
H     0.1166165    2.4346906   -3.4020880 
H    -2.1774591    1.7880991   -2.8057590 
C     4.2852532    0.6865902   -5.1775623 
C     3.4029041   -0.3937461   -5.0103598 
C     2.1227086   -0.1859720   -4.4877592 
C     1.6870022    1.1122130   -4.1314273 
C     2.5899640    2.1866939   -4.2937837 
C     3.8721738    1.9764883   -4.8140883 
H     5.2863552    0.5216282   -5.5891616 
H     3.7174241   -1.4052067   -5.2868703 
H     1.4566706   -1.0441220   -4.3465979 
H     2.2785732    3.1964115   -4.0093499 
H     4.5471017    2.8281890   -4.9428759 
C    -5.6714968   -1.4903614   -3.3667956 
C    -5.5863982   -0.3169701   -2.6033723 
C    -4.3867015    0.3986052   -2.5565492 
C    -3.2460092   -0.0400354   -3.2684698 
C    -3.3445194   -1.2315603   -4.0227428 
C    -4.5444968   -1.9472633   -4.0691138 
H    -6.6129305   -2.0465102   -3.4169564 
H    -6.4570268    0.0439048   -2.0459285 
H    -4.3240535    1.3109262   -1.9582941 
H    -2.4809919   -1.5999382   -4.5838250 
H    -4.6024147   -2.8689031   -4.6565754 
C    -2.9396162    4.5110669    1.1925936 
C    -4.2086929    3.6901994    0.8503645 
C    -5.4053130    4.2908407    1.6172259 
C    -4.4949406    3.8116932   -0.6673174 
C    -3.9585500    2.2141348    1.2254069 
C    -2.9755065    1.4730570    0.5396830 
C    -4.6594768    1.5588032    2.2532716 
C    -4.3931647    0.2259866    2.6431072 
C    -5.2315649   -0.4322021    3.7565883 
C    -4.6561902   -1.8036023    4.1709835 
C    -5.2757086    0.4769734    5.0098392 
C    -6.6739833   -0.6349004    3.2218110 
C    -3.3880964   -0.4711249    1.9555424 
C    -2.7059555    0.1405295    0.8852589 
C    -2.2499127   -2.1949347   -0.9282237 
C    -1.4775107   -2.8289938   -1.9236944 
C    -1.9255889   -4.0087721   -2.5385817 
C    -1.1049672   -4.7429109   -3.6175543 
C    -1.9946315   -5.0397430   -4.8511279 
C    -0.5857356   -6.0758197   -3.0184918 
C     0.1032217   -3.9082935   -4.0928646 
C    -3.1667768   -4.5290590   -2.1183117 
C    -3.9804101   -3.8971477   -1.1592559 
C    -3.5045740   -2.7077428   -0.5728333 
C    -5.3072013   -4.5419135   -0.7118678 
C    -6.0929464   -5.0956464   -1.9254494 
C    -4.9626065   -5.7110901    0.2489345 
C    -6.2095591   -3.5327667    0.0323537 
C    -0.3705138   -1.6011207    1.1611146 
C    -0.1964830   -2.9999926    1.1351869 
C     0.6490139   -3.6146211    2.0638185 
C     1.3241658   -2.8585194    3.0262675 
C     0.3039611   -0.8155221    2.1250867 
C     1.1473120   -1.4641662    3.0665849 
C     0.1239495    0.6594640    2.2839477 
C    -0.5259635    1.0957208    3.4701015 
O    -1.0280803    0.1061964    4.2628591 
C    -1.3474010    0.4120239    5.6327502 
C    -0.0966552    0.6498966    6.4947972 
C     0.5242481   -0.6188722    7.1057488 
C     1.0519631   -1.6846242    6.1282551 
C     2.2085715   -1.2287981    5.2215783 
O     1.7571588   -0.6526090    3.9799902 
C    -0.6251456    2.4654047    3.7725505 
C    -0.0660170    3.4045572    2.9017391 
C     0.5627129    3.0006554    1.7203825 
C     0.6530431    1.6308868    1.3975312 
C     2.2312862    2.6199680   -0.8400456 
C     1.4125604    3.6611306   -1.3210019 
C     1.9694654    4.8606655   -1.7902964 
C     1.1019510    6.0208898   -2.3161882 
C    -0.4051401    5.6895290   -2.2591101 
C     1.4825148    6.3158067   -3.7898175 
C     1.3589856    7.2796103   -1.4484544 
C     3.3758337    4.9755198   -1.7687008 
C     4.2227256    3.9531043   -1.2995672 
C     3.6266690    2.7612944   -0.8414409 
C     5.7498890    4.1669953   -1.2747096 
C     6.0694406    5.4248208   -0.4255504 
C     6.4905200    2.9633015   -0.6541783 
C     6.2688424    4.3710970   -2.7202701 
C     2.6700857   -0.1140619    0.1641032 
C     3.5693797    0.1286904    1.2230286 
C     4.6101301   -0.7732395    1.4840947 
C     5.6596555   -0.5274068    2.5850224 
C     5.3140858    0.7117966    3.4375524 
C     5.7416283   -1.7609693    3.5186127 
C     7.0395578   -0.3029798    1.9129773 
C     4.6977894   -1.9310286    0.6774489 
C     3.7972844   -2.2146460   -0.3623940 
C     2.7777938   -1.2726529   -0.6164628 
C     3.8784738   -3.5045959   -1.2030070 
C     5.1322794   -4.3414475   -0.8748529 
C     3.9161966   -3.1385327   -2.7065338 
C     2.6230933   -4.3648700   -0.9104746 
H    -2.7268035    4.4662353    2.2737353 
H    -2.0519653    4.1227840    0.6642818 
H    -3.0779214    5.5693156    0.9059937 
H    -5.2354970    4.2882480    2.7081689 
H    -6.3404884    3.7416262    1.4089022 
H    -5.5556264    5.3396559    1.3083637 
H    -4.6875287    4.8656418   -0.9344377 
H    -3.6378406    3.4713957   -1.2748713 
H    -5.3810107    3.2188106   -0.9539044 
H    -2.3898965    1.9330112   -0.2644373 
H    -5.4424319    2.1035343    2.7860329 
H    -5.2500335   -2.2220086    5.0016856 
H    -3.6078603   -1.7157750    4.5067147 
H    -4.6914676   -2.5321089    3.3417565 
H    -4.2606634    0.6570385    5.4015913 
H    -5.8722517   -0.0034575    5.8052171 
H    -5.7375182    1.4558069    4.7957623 
H    -7.1393553    0.3282490    2.9487203 
H    -6.6729611   -1.2781718    2.3246885 
H    -7.3059136   -1.1132698    3.9915087 
H    -3.1157535   -1.4887690    2.2439968 
H    -0.5148266   -2.3858306   -2.2005464 
H    -1.4079360   -5.5673189   -5.6236110 
H    -2.3799305   -4.1044469   -5.2938916 
H    -2.8579876   -5.6772200   -4.5966817 
H     0.0085894   -6.6304271   -3.7668077 
H     0.0539098   -5.8852716   -2.1392077 
H    -1.4207918   -6.7230296   -2.6987270 
H     0.8193754   -3.7114717   -3.2782738 
H    -0.2187772   -2.9393120   -4.5152139 
H     0.6465272   -4.4530138   -4.8838098 
H    -3.5188942   -5.4622865   -2.5676677 
H    -4.1049898   -2.1816117    0.1709002 
H    -7.0539187   -5.5216038   -1.5882303 
H    -5.5443014   -5.8993476   -2.4451548 
H    -6.3058990   -4.2981539   -2.6569734 
H    -4.3357302   -6.4672498   -0.2555311 
H    -4.4085547   -5.3426502    1.1305232 
H    -5.8852877   -6.2070990    0.6005024 
H    -7.1749675   -4.0066788    0.2796121 
H    -5.7569387   -3.1992331    0.9821448 
H    -6.4108433   -2.6401091   -0.5852311 
H    -0.7284093   -3.6098269    0.4019775 
H     0.7775713   -4.7016670    2.0438191 
H     1.9760835   -3.3569617    3.7471140 
H    -1.9139322   -0.4670609    5.9811892 
H    -2.0337222    1.2776016    5.6700518 
H     0.6478555    1.1991654    5.8885325 
H    -0.3763603    1.3277431    7.3223532 
H     1.3531109   -0.3112851    7.7718839 
H    -0.2278053   -1.0964696    7.7631014 
H     1.4051089   -2.5468264    6.7232562 
H     0.2365669   -2.0696882    5.4879163 
H     2.7997002   -0.4257987    5.6916074 
H     2.9041078   -2.0621520    5.0142992 
H    -1.1181923    2.8021247    4.6869609 
H    -0.1225062    4.4698946    3.1475698 
H     0.9997474    3.7533321    1.0612476 
H     0.3274628    3.5207550   -1.3161530 
H    -0.9879119    6.5430095   -2.6458902 
H    -0.6552612    4.8105395   -2.8810321 
H    -0.7455492    5.4933838   -1.2268414 
H     0.8797154    7.1547194   -4.1805394 
H     1.2974198    5.4339591   -4.4287470 
H     2.5465668    6.5904766   -3.8895711 
H     0.7468071    8.1251310   -1.8095645 
H     2.4173132    7.5900610   -1.4842959 
H     1.0963870    7.0875700   -0.3931018 
H     3.8289909    5.9038604   -2.1321750 
H     4.2457644    1.9375000   -0.4826477 
H     5.6938257    5.3073738    0.6061949 
H     7.1613061    5.5853641   -0.3805148 
H     5.6144239    6.3351665   -0.8523202 
H     6.1757387    2.7886809    0.3899194 
H     7.5767055    3.1584535   -0.6477783 
H     6.3210362    2.0348975   -1.2274796 
H     7.3550758    4.5712166   -2.7115285 
H     5.7719913    5.2229691   -3.2162408 
H     6.0900307    3.4674324   -3.3272166 
H     3.4364721    1.0239543    1.8348702 
H     4.3173666    0.6153399    3.9016707 
H     5.3249716    1.6372478    2.8347352 
H     6.0604215    0.8322268    4.2416783 
H     6.0542703   -2.6691649    2.9757302 
H     6.4779582   -1.5829048    4.3222334 
H     4.7627565   -1.9637718    3.9843454 
H     7.3478693   -1.1825882    1.3215678 
H     7.8140101   -0.1199218    2.6794175 
H     7.0091418    0.5678569    1.2358423 
H     5.5054783   -2.6383533    0.8798939 
H     2.0513940   -1.4348305   -1.4208492 
H     5.1528834   -5.2424989   -1.5120474 
H     6.0609956   -3.7748398   -1.0640472 
H     5.1376741   -4.6795531    0.1763490 
H     4.7911751   -2.5067747   -2.9370876 
H     3.0150511   -2.5833754   -3.0124058 
H     3.9737282   -4.0541736   -3.3219292 
H     2.6050761   -4.6793324    0.1465218 
H     1.6925088   -3.8040015   -1.1025178 
H     2.6197248   -5.2693751   -1.5451295 
