206
Energy =
C    -0.4913481   -3.7507669    0.7279619 
C    -1.8613978   -3.4311269    0.5818234 
C    -2.3605861   -2.9940701   -0.6865770 
H    -2.5005498   -3.3620263    1.4709733 
Pd   -0.7743590   -1.6069545    0.0198253 
P    -0.9013483    0.1263389   -1.5222406 
P     0.8508569   -0.5511494    1.3161937 
H     0.0568178   -3.9784479   -0.2001100 
H    -1.8709879   -3.4041821   -1.5806298 
C     1.6813208   -4.9267428    4.2397778 
C     2.3185834   -4.8424328    2.9930381 
C     1.5900672   -4.4608750    1.8626844 
C     0.2127956   -4.1500681    1.9530337 
C    -0.4121689   -4.2307512    3.2184820 
C     0.3159090   -4.6151263    4.3480449 
H     2.2460341   -5.2375589    5.1245061 
H     3.3838473   -5.0781167    2.8996213 
H     2.0910972   -4.3948953    0.8920694 
H    -1.4753562   -3.9961763    3.3213216 
H    -0.1835032   -4.6694705    5.3204015 
C    -6.3669526   -1.5776122   -1.3953518 
C    -5.8070629   -1.4707075   -0.1110637 
C    -4.5035457   -1.9152538    0.1315261 
C    -3.7316052   -2.4937823   -0.9035419 
C    -4.3060454   -2.5874720   -2.1903433 
C    -5.6077690   -2.1354368   -2.4340819 
H    -7.3867014   -1.2254638   -1.5823353 
H    -6.3905584   -1.0317177    0.7045680 
H    -4.0744623   -1.7995130    1.1327912 
H    -3.7207718   -3.0186539   -3.0071413 
H    -6.0287301   -2.2235829   -3.4411706 
C     3.7695722   -1.8679455    5.7780146 
C     2.4010783   -1.5566838    6.4226972 
C     2.0624465   -2.6916764    7.4200791 
C     2.5048639   -0.2140025    7.1939251 
C     1.2913761   -1.4069724    5.3631802 
C     1.5893173   -1.2118305    4.0003770 
C    -0.0624002   -1.3928159    5.7488893 
C    -1.1223278   -1.2256490    4.8345252 
C    -2.5817594   -1.2630167    5.3288030 
C    -2.8194469   -2.5433995    6.1692538 
C    -2.8407327   -0.0097549    6.2043283 
C    -3.5881368   -1.2677279    4.1587445 
C    -0.7870990   -1.0158725    3.4871790 
C     0.5609322   -0.9872152    3.0744381 
C     2.5691976   -0.9578262    0.8539443 
C     3.6715745   -0.3554237    1.4843275 
C     4.9804006   -0.7340846    1.1344474 
C     6.2145767   -0.1806010    1.8740276 
C     7.3060505    0.2581434    0.8668960 
C     6.7773436   -1.3101877    2.7771657 
C     5.8546607    1.0336887    2.7574379 
C     5.1357870   -1.6901055    0.1097160 
C     4.0500522   -2.2634473   -0.5830151 
C     2.7590124   -1.8863343   -0.1834013 
C     4.2925416   -3.2802879   -1.7149386 
C     4.9177524   -4.5631359   -1.1089306 
C     2.9795582   -3.6580611   -2.4353895 
C     5.2611365   -2.6743403   -2.7617030 
C     0.7810753    1.2917121    1.3246951 
C     0.3762196    1.9911757    2.4788454 
C     0.3142990    3.3883483    2.4577659 
C     0.6543262    4.1031843    1.3050540 
C     1.1226123    1.9934546    0.1449037 
C     1.0662232    3.4115108    0.1518856 
C     1.6324395    1.3361127   -1.0968252 
C     2.9963827    1.5650235   -1.4228921 
O     3.7047053    2.2864635   -0.5081006 
C     4.9313964    2.9151977   -0.9227851 
C     4.6938345    4.1016486   -1.8713977 
C     4.4517990    5.4534736   -1.1758680 
C     3.2171572    5.5687111   -0.2633338 
C     1.8600621    5.3976645   -0.9674696 
O     1.4216680    4.0256249   -1.0147291 
C     3.5456914    1.0541421   -2.6119864 
C     2.7334376    0.3307094   -3.4906171 
C     1.3877394    0.0955408   -3.1927888 
C     0.8312262    0.5850943   -1.9929539 
C    -1.7325406    1.6740793   -1.0328006 
C    -1.6039433    2.8199980   -1.8442938 
C    -2.3308335    3.9798518   -1.5448974 
C    -2.2903049    5.2306812   -2.4432821 
C    -1.9620023    6.4824763   -1.5919853 
C    -3.6838408    5.4063931   -3.1023063 
C    -1.2291218    5.1015557   -3.5566396 
C    -3.1557958    3.9637533   -0.3960916 
C    -3.2784589    2.8471651    0.4472979 
C    -2.5544797    1.6864057    0.1009446 
C    -4.1597202    2.8503830    1.7124112 
C    -4.9583282    4.1608665    1.8679534 
C    -5.1618800    1.6720827    1.6394154 
C    -3.2503348    2.6784773    2.9553793 
C    -1.7128619   -0.4076253   -3.0797921 
C    -1.3071604   -1.6326980   -3.6537332 
C    -1.8983236   -2.1043767   -4.8336290 
C    -1.4584379   -3.4195330   -5.5067133 
C    -2.6713441   -4.3786585   -5.6166354 
C    -0.9190224   -3.1000259   -6.9249961 
C    -0.3450808   -4.1333571   -4.7108278 
C    -2.9363828   -1.3306180   -5.4052000 
C    -3.3837791   -0.1250706   -4.8413434 
C    -2.7486774    0.3283676   -3.6654058 
C    -4.4868712    0.7414558   -5.4801364 
C    -5.4896867    1.2222156   -4.4001531 
C    -5.2708429   -0.0272727   -6.5643488 
C    -3.8069679    1.9768247   -6.1287883 
H     3.7250110   -2.7776270    5.1536379 
H     4.1253293   -1.0343835    5.1478375 
H     4.5256386   -2.0279901    6.5657445 
H     1.9408742   -3.6548171    6.8969677 
H     1.1354374   -2.4884526    7.9824918 
H     2.8765796   -2.7995596    8.1580153 
H     3.2931296   -0.2727003    7.9659133 
H     2.7527264    0.6139296    6.5063867 
H     1.5518263    0.0323551    7.6940565 
H     2.6240117   -1.2287006    3.6552535 
H    -0.3045766   -1.5300952    6.8071140 
H    -3.8659018   -2.5787269    6.5198969 
H    -2.1688704   -2.5816860    7.0591915 
H    -2.6288033   -3.4505036    5.5687732 
H    -2.1640029    0.0173605    7.0759687 
H    -3.8799709   -0.0090250    6.5793456 
H    -2.6815565    0.9134293    5.6204652 
H    -3.5180835   -0.3536866    3.5460925 
H    -3.4342316   -2.1414658    3.5001382 
H    -4.6180168   -1.3232050    4.5507883 
H    -1.5682160   -0.8677960    2.7333889 
H     3.4972081    0.4159391    2.2377234 
H     8.1801503    0.6598516    1.4088308 
H     6.9277915    1.0447295    0.1926613 
H     7.6611095   -0.5818118    0.2460396 
H     7.6616678   -0.9536301    3.3354959 
H     6.0181466   -1.6441136    3.5056710 
H     7.0812129   -2.1859163    2.1772848 
H     5.1634478    0.7593352    3.5735662 
H     5.3835274    1.8372431    2.1642558 
H     6.7683135    1.4397499    3.2244805 
H     6.1497922   -1.9957548   -0.1676682 
H     1.8742282   -2.2890960   -0.6839279 
H     5.1084324   -5.3104429   -1.8998674 
H     4.2406803   -5.0165384   -0.3629869 
H     5.8769436   -4.3458255   -0.6078507 
H     2.2679394   -4.1647846   -1.7584243 
H     2.4815843   -2.7674185   -2.8574495 
H     3.1939782   -4.3548327   -3.2638665 
H     5.4313600   -3.3915596   -3.5841769 
H     4.8405957   -1.7474787   -3.1876959 
H     6.2435944   -2.4334689   -2.3208600 
H     0.1239881    1.4489768    3.3930522 
H     0.0057584    3.9316925    3.3568027 
H     0.6057259    5.1944244    1.3110024 
H     5.6013161    2.1625497   -1.3766938 
H     5.4005985    3.2412958    0.0198239 
H     5.5836006    4.2050141   -2.5195653 
H     3.8532771    3.8482363   -2.5444190 
H     5.3474026    5.7028905   -0.5747237 
H     4.3865647    6.2362780   -1.9558608 
H     3.2730632    4.8427380    0.5692811 
H     3.2331387    6.5703153    0.2044588 
H     1.0820382    6.0214629   -0.4912082 
H     1.9125532    5.7005614   -2.0260133 
H     4.5948843    1.2256020   -2.8617933 
H     3.1550509   -0.0488275   -4.4271428 
H     0.7675188   -0.4496090   -3.9070999 
H    -0.9346373    2.7840709   -2.7069976 
H    -1.9144063    7.3791974   -2.2348273 
H    -2.7257740    6.6679596   -0.8176988 
H    -0.9879574    6.3664069   -1.0870399 
H    -3.6890069    6.2942182   -3.7598317 
H    -4.4754065    5.5392589   -2.3443443 
H    -3.9420881    4.5230074   -3.7124991 
H    -1.1933239    6.0325321   -4.1482636 
H    -1.4657653    4.2770658   -4.2521950 
H    -0.2251100    4.9189810   -3.1365181 
H    -3.7237845    4.8663206   -0.1586253 
H    -2.6220607    0.7793496    0.7118813 
H    -5.6336992    4.3307455    1.0109784 
H    -5.5793296    4.1101951    2.7790598 
H    -4.2938866    5.0371849    1.9679274 
H    -5.8085213    1.7579627    0.7490961 
H    -5.8041961    1.6597289    2.5381571 
H    -4.6429842    0.7017682    1.5821148 
H    -3.8623780    2.6158446    3.8731012 
H    -2.5597285    3.5327255    3.0536220 
H    -2.6361936    1.7641330    2.8874840 
H    -0.5230274   -2.2133381   -3.1591731 
H    -3.4944397   -3.9334735   -6.2010707 
H    -3.0634833   -4.6365378   -4.6168029 
H    -2.3721529   -5.3163197   -6.1176894 
H    -0.0543749   -2.4152883   -6.8695273 
H    -0.5950201   -4.0276757   -7.4297455 
H    -1.6897749   -2.6240158   -7.5550887 
H     0.5642130   -3.5125232   -4.6273641 
H    -0.0633409   -5.0695083   -5.2226740 
H    -0.6772104   -4.4008491   -3.6911249 
H    -3.4101062   -1.6950949   -6.3201569 
H    -3.0718047    1.2631588   -3.2017838 
H    -6.2937250    1.8130538   -4.8731754 
H    -5.9472670    0.3679543   -3.8734141 
H    -5.0091391    1.8663795   -3.6436938 
H    -5.7365419   -0.9409513   -6.1533119 
H    -4.6276563   -0.3169330   -7.4135697 
H    -6.0756348    0.6119773   -6.9662564 
H    -3.2513356    2.5641173   -5.3762643 
H    -3.0940223    1.6675599   -6.9129463 
H    -4.5645532    2.6369912   -6.5882316 
