200
Energy =
C     3.4140531    0.3213346    1.6024952 
C     3.5117422    1.5138609    0.8258663 
C     2.6320435    2.5954652    1.0637279 
H     4.1594010    1.5297718   -0.0607950 
Pd    1.4844748    0.6936326    0.5438056 
P    -0.3768378    1.5473150   -0.5939084 
P     0.5143899   -1.4052847    0.8107093 
H     3.0730356    0.4329507    2.6416154 
H     2.1104609    2.6078125    2.0342597 
C     5.6973547   -3.2584788    0.8896213 
C     5.2672717   -2.4784557   -0.1972200 
C     4.5302265   -1.3107915    0.0230701 
C     4.2021387   -0.8983184    1.3341315 
C     4.6399805   -1.6923974    2.4149739 
C     5.3844976   -2.8566775    2.1960289 
H     6.2719844   -4.1743937    0.7163574 
H     5.5026969   -2.7863778   -1.2205886 
H     4.1814003   -0.7193742   -0.8310321 
H     4.3907347   -1.3908781    3.4358517 
H     5.7174768   -3.4517055    3.0519348 
C     2.5730713    6.3810011   -0.9653554 
C     1.4926638    5.9795379   -0.1647222 
C     1.5263225    4.7477281    0.4942775 
C     2.6342023    3.8814324    0.3516050 
C     3.7211250    4.3020605   -0.4472850 
C     3.6918616    5.5430775   -1.0922225 
H     2.5475951    7.3465191   -1.4806566 
H     0.6174750    6.6279436   -0.0559060 
H     0.6746336    4.4325842    1.1081783 
H     4.6108606    3.6706493   -0.5366957 
H     4.5524777    5.8633696   -1.6882239 
C     3.6832504   -2.3978241   -3.6911014 
C     2.2039000   -2.4949365   -4.1414388 
C     2.1142349   -3.5049740   -5.3039836 
C     1.7378546   -1.1115528   -4.6592465 
C     1.3335110   -2.9101186   -2.9372587 
C     1.3058999   -2.1028200   -1.7804753 
C     0.5497233   -4.0759234   -2.9314427 
C    -0.2595890   -4.4595805   -1.8369713 
C    -1.1051800   -5.7440750   -1.9234138 
C    -2.0780928   -5.6246076   -3.1244957 
C    -0.1677989   -6.9611821   -2.1277793 
C    -1.9380230   -5.9696506   -0.6439561 
C    -0.2676234   -3.6317212   -0.7070241 
C     0.5186449   -2.4620463   -0.6789323 
C     1.2861401   -2.3890533    2.1531315 
C     1.7101043   -3.7143241    1.9591793 
C     2.2325534   -4.4601826    3.0296637 
C     2.6264524   -5.9415880    2.8613828 
C     1.5487263   -6.8035559    3.5712629 
C     4.0091717   -6.2211772    3.4992260 
C     2.6930079   -6.3528679    1.3741099 
C     2.3143637   -3.8384435    4.2947212 
C     1.9239624   -2.5042928    4.5145268 
C     1.4281946   -1.7822605    3.4124405 
C     1.9656138   -1.8320141    5.9021936 
C     2.7090073   -0.4747969    5.8199308 
C     0.5042464   -1.5853965    6.3637217 
C     2.6747128   -2.7104503    6.9536085 
C    -1.2686177   -1.2759716    1.3127092 
C    -1.6499816   -1.5059547    2.6509577 
C    -2.9802053   -1.3441174    3.0532327 
C    -3.9580419   -0.9605183    2.1308477 
C    -2.2497731   -0.8998227    0.3603100 
C    -3.5942708   -0.7612263    0.7917055 
C    -2.0024304   -0.7268101   -1.1045133 
C    -2.6426637   -1.6467275   -1.9714754 
O    -3.3262913   -2.6826417   -1.3895369 
C    -4.7147070   -2.8944452   -1.7305979 
C    -5.5965743   -2.5811208   -0.5189978 
C    -5.7634942   -1.0869858   -0.2290213 
O    -4.5036558   -0.3895236   -0.1672087 
C    -2.5386812   -1.5311078   -3.3655385 
C    -1.8146893   -0.4684579   -3.9136365 
C    -1.1765166    0.4576489   -3.0801183 
C    -1.2593868    0.3354869   -1.6783791 
C    -1.6470181    2.1494496    0.5726714 
C    -2.9513025    2.4632838    0.1522473 
C    -3.8987963    2.9304634    1.0790482 
C    -5.3339828    3.3091336    0.6659251 
C    -5.5974550    3.0212733   -0.8272795 
C    -5.5485515    4.8221254    0.9268881 
C    -6.3422710    2.4845692    1.5057454 
C    -3.5015218    3.0431070    2.4279377 
C    -2.2142392    2.6980497    2.8849132 
C    -1.2875840    2.2580858    1.9263579 
C    -1.8577376    2.8001241    4.3803043 
C    -2.8694783    1.9691603    5.2096516 
C    -1.9201503    4.2865725    4.8144208 
C    -0.4410213    2.2570735    4.6682105 
C     0.0232299    2.9085560   -1.7518261 
C     1.1944305    2.7644991   -2.5169828 
C     1.4945584    3.6729966   -3.5473391 
C     2.6894229    3.4561323   -4.4967887 
C     3.3841376    4.7967781   -4.8353802 
C     2.1371515    2.8221375   -5.8017114 
C     3.7431750    2.5049627   -3.8859582 
C     0.6069849    4.7497641   -3.7411527 
C    -0.5469299    4.9492266   -2.9566686 
C    -0.8331511    4.0020951   -1.9586000 
C    -1.4678947    6.1542332   -3.2327284 
C    -2.1003895    5.9812348   -4.6383596 
C    -2.6033024    6.2639166   -2.1922157 
C    -0.6446959    7.4667606   -3.1952694 
H     4.3266007   -2.1262120   -4.5468910 
H     4.0340604   -3.3618847   -3.2840330 
H     3.8180105   -1.6283353   -2.9124670 
H     2.7479576   -3.1639380   -6.1408093 
H     2.4682229   -4.5068461   -5.0038815 
H     1.0818384   -3.5990978   -5.6843871 
H     2.3945402   -0.7678271   -5.4782813 
H     1.7591124   -0.3487584   -3.8623900 
H     0.7044358   -1.1639694   -5.0391194 
H     1.8856182   -1.1743094   -1.7315553 
H     0.5546531   -4.7174847   -3.8158737 
H    -2.7117932   -6.5265812   -3.1959649 
H    -2.7297797   -4.7443612   -2.9961532 
H    -1.5381921   -5.5165565   -4.0810268 
H     0.4253035   -6.8697663   -3.0541592 
H     0.5356138   -7.0602284   -1.2823239 
H    -0.7591147   -7.8916935   -2.1962600 
H    -2.5400238   -6.8888031   -0.7495105 
H    -1.2939679   -6.0945018    0.2451458 
H    -2.6260101   -5.1260938   -0.4614479 
H    -0.8969697   -3.8674059    0.1539929 
H     1.6245087   -4.1603765    0.9675415 
H     0.5523006   -6.6245340    3.1298014 
H     1.4916008   -6.5672191    4.6482483 
H     1.7863180   -7.8776863    3.4685678 
H     4.7977873   -5.6375441    2.9955720 
H     4.0306753   -5.9749157    4.5744987 
H     4.2585537   -7.2922913    3.4006266 
H     1.7091511   -6.2759069    0.8788669 
H     3.0202365   -7.4038527    1.2945312 
H     3.4114860   -5.7270973    0.8153260 
H     2.6970663   -4.4215914    5.1354639 
H     1.1268281   -0.7357768    3.5366573 
H     3.7581130   -0.6140183    5.5049861 
H     2.7150019    0.0148571    6.8095745 
H     2.2250454    0.2211826    5.1121448 
H    -0.0542983   -2.5361665    6.4183854 
H     0.4896840   -1.1165165    7.3639298 
H    -0.0303453   -0.9139708    5.6687172 
H     2.1444976   -3.6649608    7.1156776 
H     2.7054326   -2.1811376    7.9214704 
H     3.7149461   -2.9357229    6.6589458 
H    -0.9120196   -1.8362284    3.3841734 
H    -3.2557623   -1.5271939    4.0968451 
H    -4.9961914   -0.8222054    2.4446507 
H    -4.9901832   -2.2732087   -2.6029398 
H    -4.8162001   -3.9567721   -2.0118831 
H    -6.6031514   -3.0092497   -0.6845470 
H    -5.1693889   -3.0956076    0.3608424 
H    -6.3007588   -0.5822335   -1.0485295 
H    -6.3480450   -0.9321249    0.6979900 
H    -3.0213634   -2.2741517   -4.0072439 
H    -1.7404787   -0.3617414   -5.0007115 
H    -0.6174365    1.2839315   -3.5253114 
H    -3.2243898    2.3092456   -0.8938456 
H    -6.6423197    3.2752859   -1.0759168 
H    -4.9454951    3.6274098   -1.4809686 
H    -5.4334309    1.9560959   -1.0639254 
H    -4.8365968    5.4251178    0.3358064 
H    -6.5736706    5.1187531    0.6414398 
H    -5.4067364    5.0751572    1.9920269 
H    -6.2469080    2.6912367    2.5854751 
H    -7.3776417    2.7279755    1.2081927 
H    -6.1777497    1.4053382    1.3481694 
H    -4.2355758    3.3994879    3.1583914 
H    -0.2767452    1.9582812    2.2178080 
H    -3.9021052    2.3375102    5.0851445 
H    -2.8454536    0.9099845    4.9012936 
H    -2.6205995    2.0268143    6.2842143 
H    -1.6733726    4.3851789    5.8866751 
H    -2.9273090    4.7102043    4.6579515 
H    -1.2018734    4.8940372    4.2360191 
H     0.3392249    2.8448057    4.1519751 
H    -0.3451527    1.2016295    4.3565069 
H    -0.2323462    2.3082231    5.7504558 
H     1.8562372    1.9170451   -2.3103686 
H     2.7154438    5.4857905   -5.3785308 
H     4.2592321    4.6136419   -5.4829950 
H     3.7288291    5.3041496   -3.9191659 
H     2.9570639    2.6369331   -6.5191822 
H     1.6387032    1.8600439   -5.5890992 
H     1.4008462    3.4886986   -6.2839312 
H     4.1016857    2.8811975   -2.9124186 
H     4.6099438    2.4245315   -4.5643189 
H     3.3481907    1.4846168   -3.7417358 
H     0.8226613    5.4651197   -4.5402133 
H    -1.7197869    4.1117999   -1.3325171 
H    -2.6927295    5.0506046   -4.6884323 
H    -2.7686440    6.8309363   -4.8660765 
H    -1.3284243    5.9364082   -5.4261117 
H    -3.2206772    7.1526905   -2.4079218 
H    -2.2080699    6.3686603   -1.1658841 
H    -3.2701392    5.3841044   -2.2164047 
H    -1.2990139    8.3313122   -3.4047617 
H     0.1627080    7.4684870   -3.9473220 
H    -0.1849601    7.6151758   -2.2032482 
