200
Energy =
C     3.4447888    0.3451337    1.3696004 
C     3.3190362    1.6802977    0.8604951 
C     2.3519172    2.5545494    1.4066528 
H     3.8412875    1.9654202   -0.0610827 
Pd    1.3971210    0.6495609    0.5987090 
P    -0.4404234    1.4945478   -0.5486462 
P     0.4832253   -1.4782825    0.8410155 
H     3.2546479    0.1921649    2.4405093 
H     1.9710634    2.2973416    2.4082494 
C     5.6661887   -2.8291433   -0.5163540 
C     5.3534269   -1.6684035   -1.2438042 
C     4.6401654   -0.6280022   -0.6409747 
C     4.2334583   -0.7148381    0.7127357 
C     4.5629825   -1.8848809    1.4348391 
C     5.2669997   -2.9297955    0.8243968 
H     6.2191674   -3.6455445   -0.9920936 
H     5.6633528   -1.5775929   -2.2902161 
H     4.3841297    0.2555854   -1.2347477 
H     4.2530588   -1.9759145    2.4815092 
H     5.5075738   -3.8275033    1.4025272 
C     1.2299711    6.5200958    0.2028484 
C     0.6023113    5.8911276    1.2885350 
C     0.9908697    4.6027667    1.6656705 
C     2.0083660    3.9118888    0.9656183 
C     2.6268726    4.5578541   -0.1293340 
C     2.2397442    5.8476247   -0.5046369 
H     0.9360373    7.5331925   -0.0893559 
H    -0.1883514    6.4060637    1.8441370 
H     0.4984116    4.1146142    2.5125023 
H     3.4190680    4.0530893   -0.6891125 
H     2.7263577    6.3320289   -1.3567814 
C     3.3545457   -3.7293517   -4.1033967 
C     2.1192984   -2.7916559   -4.0936837 
C     1.2824699   -3.0199622   -5.3765624 
C     2.6004720   -1.3249281   -4.0919045 
C     1.2812132   -3.1110820   -2.8409158 
C     1.2699942   -2.2702331   -1.7132873 
C     0.5126323   -4.2893078   -2.7819153 
C    -0.2832990   -4.6426903   -1.6727415 
C    -1.1199919   -5.9352900   -1.7070443 
C    -1.9818265   -6.0937701   -0.4368729 
C    -2.0652839   -5.8922563   -2.9350013 
C    -0.1684280   -7.1533514   -1.8205656 
C    -0.2899825   -3.7713730   -0.5727423 
C     0.4919837   -2.6016924   -0.5931749 
C     1.2807313   -2.3755227    2.2272170 
C     1.7125139   -3.7044734    2.1051414 
C     2.3718748   -4.3441881    3.1733897 
C     2.8054380   -5.8211722    3.0883357 
C     4.2593095   -5.9911254    3.5945082 
C     2.7295832   -6.3588484    1.6422641 
C     1.8499684   -6.6536595    3.9836761 
C     2.5920406   -3.6016329    4.3483655 
C     2.1900902   -2.2559829    4.4956205 
C     1.5275849   -1.6552750    3.4138101 
C     2.5182500   -1.4894956    5.7912811 
C     1.9720417   -0.0462403    5.7648384 
C     1.8917452   -2.2267283    7.0019202 
C     4.0593486   -1.4278566    5.9545418 
C    -1.2981622   -1.3156209    1.3188422 
C    -1.6991385   -1.4882145    2.6587544 
C    -3.0362257   -1.2966756    3.0283327 
C    -3.9953173   -0.9459911    2.0722066 
C    -2.2566068   -0.9590361    0.3362964 
C    -3.6073616   -0.7994388    0.7319363 
C    -1.9600257   -0.8140564   -1.1227599 
C    -2.5366063   -1.7642886   -1.9990097 
O    -3.2512573   -2.7875643   -1.4317423 
C    -4.6323071   -2.9780254   -1.8151423 
C    -5.5467758   -2.6660275   -0.6268232 
C    -5.7394802   -1.1729893   -0.3454201 
O    -4.4917307   -0.4576624   -0.2603862 
C    -2.3363063   -1.6902078   -3.3859694 
C    -1.5876340   -0.6348375   -3.9176710 
C    -1.0308094    0.3347980   -3.0741273 
C    -1.2093454    0.2518877   -1.6787889 
C    -1.8148943    2.1128712    0.4771661 
C    -3.0527785    2.4597686   -0.0918963 
C    -4.0940607    2.9374923    0.7209701 
C    -5.4667879    3.3360940    0.1471358 
C    -5.5671284    3.0298439   -1.3622313 
C    -5.6815439    4.8557486    0.3650590 
C    -6.5778100    2.5409788    0.8789478 
C    -3.8518100    3.0400752    2.1065766 
C    -2.6365200    2.6593485    2.7091134 
C    -1.6154894    2.1935195    1.8648424 
C    -2.4458364    2.7788148    4.2333809 
C    -1.1587268    2.0670653    4.7044440 
C    -3.6461313    2.1359151    4.9724002 
C    -2.3548041    4.2824578    4.6012833 
C     0.0990015    2.8358334   -1.6754071 
C     1.3045161    2.6298170   -2.3771158 
C     1.7450898    3.5596387   -3.3338262 
C     3.0407848    3.3539728   -4.1438456 
C     3.9458555    2.2714681   -3.5174015 
C     3.8524962    4.6716111   -4.2096789 
C     2.6504343    2.9099401   -5.5777305 
C     0.9369977    4.6927263   -3.5601463 
C    -0.2476997    4.9484938   -2.8434274 
C    -0.6528619    4.0005459   -1.8848049 
C    -1.1052269    6.1898476   -3.1593047 
C    -0.2155604    7.4419730   -3.3541246 
C    -1.8826682    5.9067010   -4.4722291 
C    -2.1187761    6.4853677   -2.0308135 
H     3.9884650   -3.5257442   -4.9855530 
H     3.0470675   -4.7891685   -4.1395145 
H     3.9618306   -3.5819298   -3.1934229 
H     1.8769169   -2.7507866   -6.2674180 
H     0.9765080   -4.0734483   -5.4924367 
H     0.3710076   -2.3975803   -5.3649782 
H     3.1549846   -1.1093506   -5.0217196 
H     3.2789605   -1.1215954   -3.2471688 
H     1.7487581   -0.6242860   -4.0302207 
H     1.8495869   -1.3433783   -1.6921821 
H     0.5229202   -4.9602107   -3.6467143 
H    -2.5824913   -7.0171461   -0.5073041 
H    -1.3589540   -6.1720507    0.4722294 
H    -2.6723874   -5.2413178   -0.3147682 
H    -2.7164628   -5.0038594   -2.8794600 
H    -1.5046414   -5.8480396   -3.8845575 
H    -2.7003156   -6.7956377   -2.9621849 
H    -0.7495504   -8.0922533   -1.8543283 
H     0.4484960   -7.1043011   -2.7346578 
H     0.5133678   -7.1994406   -0.9531046 
H    -0.9177251   -3.9751338    0.2976715 
H     1.5426972   -4.2348564    1.1671516 
H     4.3696420   -5.6963577    4.6518886 
H     4.9613737   -5.3844378    2.9966326 
H     4.5653110   -7.0488465    3.5138923 
H     1.6957001   -6.3568382    1.2545342 
H     3.3562430   -5.7632960    0.9546600 
H     3.0891862   -7.4017500    1.6151719 
H     1.8945083   -6.3191481    5.0349809 
H     2.1266366   -7.7227592    3.9517169 
H     0.8055480   -6.5549736    3.6388080 
H     3.1068473   -4.0851912    5.1845312 
H     1.2073563   -0.6103390    3.4728055 
H     2.4122244    0.5458887    4.9417496 
H     2.2257981    0.4646537    6.7093477 
H     0.8736277   -0.0255281    5.6576121 
H     2.2787978   -3.2553996    7.0997788 
H     2.1253566   -1.6897817    7.9383229 
H     0.7936442   -2.2840429    6.9004419 
H     4.5023636   -2.4362476    6.0221172 
H     4.3262074   -0.8784643    6.8748720 
H     4.5237470   -0.9097521    5.0963123 
H    -0.9699960   -1.7900379    3.4147728 
H    -3.3333281   -1.4296640    4.0736930 
H    -5.0376958   -0.7867815    2.3617187 
H    -4.8721552   -2.3459034   -2.6902790 
H    -4.7398422   -4.0364788   -2.1086534 
H    -6.5444675   -3.1060186   -0.8140702 
H    -5.1350712   -3.1727943    0.2648833 
H    -6.2674833   -0.6787851   -1.1772803 
H    -6.3443300   -1.0247809    0.5697118 
H    -2.7634084   -2.4612292   -4.0340786 
H    -1.4363080   -0.5640344   -4.9996692 
H    -0.4646764    1.1646330   -3.5049476 
H    -3.1999568    2.3253265   -1.1657051 
H    -6.5728132    3.2966772   -1.7303054 
H    -4.8350525    3.6136843   -1.9484970 
H    -5.3987012    1.9576335   -1.5647048 
H    -4.8987642    5.4394489   -0.1507697 
H    -6.6640568    5.1660049   -0.0334320 
H    -5.6516039    5.1197969    1.4365644 
H    -6.6039539    2.7673006    1.9586221 
H    -7.5681664    2.7936712    0.4603718 
H    -6.4139491    1.4567236    0.7605261 
H    -4.6550700    3.4175114    2.7476243 
H    -0.6565651    1.8595527    2.2699906 
H    -1.1627286    1.0015545    4.4145146 
H    -0.2481388    2.5344185    4.2886918 
H    -1.0795981    2.1236675    5.8036494 
H    -3.4973284    2.1983943    6.0648616 
H    -3.7500946    1.0730044    4.6946451 
H    -4.5964373    2.6451074    4.7387732 
H    -3.2706375    4.8224078    4.3039746 
H    -1.4994682    4.7603810    4.0911800 
H    -2.2215162    4.4075998    5.6908677 
H     1.8871664    1.7263242   -2.1671286 
H     4.2278414    2.5346387   -2.4818136 
H     4.8761641    2.1766395   -4.1028951 
H     3.4623140    1.2814746   -3.5056003 
H     4.7921221    4.5086910   -4.7659082 
H     3.3015063    5.4768713   -4.7236272 
H     4.1116743    5.0268234   -3.1963899 
H     2.0899649    1.9585609   -5.5517438 
H     3.5531373    2.7637331   -6.1978377 
H     2.0150272    3.6673538   -6.0689044 
H     1.2519570    5.4133251   -4.3200639 
H    -1.5604022    4.1613067   -1.3007282 
H     0.4685143    7.3379113   -4.2134327 
H    -0.8480073    8.3263132   -3.5454802 
H     0.3921372    7.6399134   -2.4551087 
H    -2.5144441    6.7724043   -4.7412068 
H    -2.5350962    5.0229406   -4.3578115 
H    -1.1897677    5.7125709   -5.3097377 
H    -2.6686793    7.4145471   -2.2585762 
H    -1.6120553    6.6136872   -1.0581621 
H    -2.8669841    5.6802231   -1.9249995 
