200
Energy =
C     3.3873577    0.3865149    1.6494649 
C     3.4493048    1.5887498    0.8827393 
C     2.5423436    2.6431114    1.1378019 
H     4.0901905    1.6305121   -0.0080341 
Pd    1.4465037    0.7124699    0.6055322 
P    -0.4100437    1.5407344   -0.5579504 
P     0.5092562   -1.4026121    0.8544216 
H     3.0551340    0.4833921    2.6931078 
H     2.0250805    2.6285646    2.1107212 
C     5.7039864   -3.1601769    0.8873243 
C     5.2652794   -2.3706633   -0.1893041 
C     4.5195522   -1.2114150    0.0458644 
C     4.1952288   -0.8154413    1.3630007 
C     4.6478669   -1.6152579    2.4332434 
C     5.3954528   -2.7745691    2.1998309 
H     6.2827056   -4.0709642    0.7010755 
H     5.4993739   -2.6657527   -1.2167921 
H     4.1602664   -0.6151868   -0.8007081 
H     4.4062544   -1.3216086    3.4584136 
H     5.7324817   -3.3786289    3.0480441 
C     2.3848717    6.4652973   -0.8170746 
C     1.3114144    6.0175007   -0.0316792 
C     1.3752988    4.7727614    0.6006588 
C     2.5063938    3.9391554    0.4440383 
C     3.5829218    4.4036090   -0.3446826 
C     3.5241310    5.6584352   -0.9603250 
H     2.3388431    7.4427805   -1.3076707 
H     0.4192628    6.6407734    0.0879936 
H     0.5306238    4.4235398    1.2054662 
H     4.4885262    3.7971596   -0.4465579 
H     4.3783138    6.0160041   -1.5441550 
C     1.6255749   -1.1202405   -4.6724978 
C     2.1458343   -2.4707064   -4.1204840 
C     3.6187258   -2.3041622   -3.6699287 
C     2.1012829   -3.5124859   -5.2574370 
C     1.2829917   -2.8868630   -2.9116234 
C     1.2645675   -2.0819459   -1.7527608 
C     0.4898808   -4.0461380   -2.9075288 
C    -0.3205939   -4.4260968   -1.8126355 
C    -1.1781651   -5.7026971   -1.9023734 
C    -2.1801378   -5.5499823   -3.0755648 
C    -0.2593906   -6.9246448   -2.1560798 
C    -1.9798082   -5.9471510   -0.6065973 
C    -0.3194863   -3.6008254   -0.6806923 
C     0.4772267   -2.4378661   -0.6505396 
C     1.3045445   -2.4292151    2.1536375 
C     1.5066134   -1.8605110    3.4272928 
C     2.0461405   -2.6219658    4.4775570 
C     2.2253061   -2.0552688    5.9001738 
C     1.2477403   -2.7967764    6.8491192 
C     1.9199137   -0.5438281    5.9639208 
C     3.6809608   -2.2777969    6.3829417 
C     2.4044961   -3.9570678    4.1989994 
C     2.2675872   -4.5369390    2.9242874 
C     1.7100450   -3.7484666    1.9003165 
C     2.6594209   -6.0096728    2.6906706 
C     1.6646615   -6.9045850    3.4758755 
C     2.5963118   -6.3913481    1.1958967 
C     4.1000485   -6.2723006    3.1949175 
C    -1.2614172   -1.2461412    1.3889831 
C    -1.6085665   -1.4292201    2.7435628 
C    -2.9238131   -1.2299463    3.1774015 
C    -3.9210059   -0.8595243    2.2700868 
C    -2.2615300   -0.8770100    0.4527765 
C    -3.5921819   -0.7072259    0.9157674 
C    -2.0483902   -0.7268273   -1.0201418 
C    -2.7208424   -1.6438192   -1.8639512 
O    -3.3994904   -2.6683620   -1.2567748 
C    -4.7989626   -2.8682050   -1.5567193 
C    -5.6413986   -2.5370273   -0.3219971 
C    -5.7888654   -1.0389401   -0.0418416 
O    -4.5231675   -0.3499078   -0.0277176 
C    -2.6489035   -1.5385047   -3.2611222 
C    -1.9198522   -0.4926811   -3.8345562 
C    -1.2491187    0.4305716   -3.0233883 
C    -1.3056498    0.3208103   -1.6197352 
C    -1.6962246    2.1899575    0.5655746 
C    -2.9863626    2.5023121    0.1020484 
C    -3.9519980    3.0102101    0.9874037 
C    -5.3718954    3.3881251    0.5245345 
C    -6.4120393    2.6305303    1.3882635 
C    -5.6109035    3.0200337   -0.9551924 
C    -5.5632312    4.9170455    0.6959552 
C    -3.5862845    3.1676957    2.3403788 
C    -2.3161005    2.8214818    2.8419861 
C    -1.3706096    2.3359761    1.9242091 
C    -1.9956077    2.9785547    4.3404748 
C    -1.9994779    4.4868028    4.6980972 
C    -0.6141522    2.3856413    4.6928073 
C    -3.0662214    2.2385442    5.1816259 
C     0.0328885    2.8612164   -1.7475158 
C     1.2277062    2.6877700   -2.4689944 
C     1.5706922    3.5667668   -3.5113648 
C     2.8096420    3.3346478   -4.3987988 
C     3.5622492    4.6625018   -4.6556213 
C     2.3181593    2.7549992   -5.7519427 
C     3.7981312    2.3364121   -3.7554433 
C     0.6938642    4.6390164   -3.7703371 
C    -0.4882816    4.8637232   -3.0362949 
C    -0.8114006    3.9497246   -2.0185830 
C    -1.3942784    6.0626153   -3.3803415 
C    -2.5964584    6.1735140   -2.4179688 
C    -0.5778300    7.3770775   -3.2933877 
C    -1.9333692    5.8819644   -4.8232294 
H     2.2678086   -0.7723076   -5.5011974 
H     1.6171058   -0.3384803   -3.8938448 
H     0.5944839   -1.2230756   -5.0491110 
H     4.2524012   -2.0277095   -4.5312810 
H     3.7236374   -1.5115316   -2.9100440 
H     4.0065023   -3.2437691   -3.2399398 
H     2.7376714   -3.1755170   -6.0938818 
H     1.0782914   -3.6451678   -5.6512724 
H     2.4773575   -4.4959820   -4.9249575 
H     1.8540405   -1.1598149   -1.7020610 
H     0.4880039   -4.6852883   -3.7937036 
H    -2.8178135   -6.4485509   -3.1550000 
H    -2.8262018   -4.6724126   -2.9076710 
H    -1.6628098   -5.4172474   -4.0415009 
H     0.3072183   -6.8232575   -3.0977762 
H     0.4672182   -7.0473550   -1.3338759 
H    -0.8627995   -7.8473135   -2.2244498 
H    -2.5871818   -6.8627423   -0.7123852 
H    -1.3138767   -6.0878726    0.2638084 
H    -2.6608837   -5.1053108   -0.3933301 
H    -0.9470702   -3.8350077    0.1820502 
H     1.2317037   -0.8143044    3.5895986 
H     1.4475374   -3.8820919    6.8655008 
H     0.2019774   -2.6488921    6.5260080 
H     1.3491485   -2.4157985    7.8811532 
H     2.5768966    0.0345234    5.2887978 
H     0.8710442   -0.3231070    5.7000135 
H     2.0870233   -0.1724639    6.9894886 
H     3.9504813   -3.3472840    6.4021870 
H     3.8055662   -1.8839928    7.4070158 
H     4.4015285   -1.7570262    5.7279209 
H     2.8150138   -4.5672665    5.0100228 
H     1.5845957   -4.1615941    0.8990325 
H     1.7000051   -6.6927237    4.5588201 
H     1.9097976   -7.9717827    3.3290027 
H     0.6296378   -6.7353920    3.1297042 
H     3.2640615   -5.7557603    0.5876487 
H     2.9141779   -7.4403097    1.0672062 
H     1.5727327   -6.3038151    0.7913721 
H     4.8267674   -5.6608697    2.6340744 
H     4.3614265   -7.3357941    3.0532271 
H     4.2130299   -6.0430446    4.2684520 
H    -0.8543170   -1.7507257    3.4646062 
H    -3.1732895   -1.3733126    4.2337634 
H    -4.9474893   -0.6926378    2.6076526 
H    -5.0930491   -2.2501970   -2.4253151 
H    -4.9189548   -3.9314127   -1.8273445 
H    -6.6555589   -2.9595058   -0.4520300 
H    -5.1904453   -3.0457249    0.5492935 
H    -6.3490936   -0.5386939   -0.8486378 
H    -6.3420715   -0.8714201    0.9019666 
H    -3.1584492   -2.2776518   -3.8863124 
H    -1.8677761   -0.3971103   -4.9239419 
H    -0.6870373    1.2451846   -3.4861880 
H    -3.2344872    2.3155307   -0.9448835 
H    -7.4362023    2.8696417    1.0510462 
H    -6.2607785    1.5413107    1.3020813 
H    -6.3400430    2.9024377    2.4552440 
H    -5.4546584    1.9415219   -1.1290926 
H    -6.6478890    3.2708104   -1.2376799 
H    -4.9401591    3.5813620   -1.6294347 
H    -4.8300219    5.4731566    0.0852941 
H    -6.5776064    5.2152988    0.3758098 
H    -5.4348339    5.2264659    1.7479178 
H    -4.3322310    3.5612033    3.0388023 
H    -0.3726705    2.0325988    2.2529232 
H    -1.2378193    5.0301238    4.1111484 
H    -2.9810568    4.9469348    4.4900130 
H    -1.7772584    4.6293892    5.7708063 
H    -0.4335091    2.4748233    5.7777156 
H     0.2063300    2.9166535    4.1774464 
H    -0.5573300    1.3151666    4.4258590 
H    -3.0905470    1.1662724    4.9218255 
H    -4.0758242    2.6525257    5.0183379 
H    -2.8372849    2.3327923    6.2579835 
H     1.8766880    1.8437417   -2.2137365 
H     2.9388586    5.3953109   -5.1952625 
H     4.4571087    4.4743515   -5.2743178 
H     3.8849417    5.1209306   -3.7064453 
H     3.1743430    2.5597415   -6.4227775 
H     1.7744828    1.8067929   -5.5979283 
H     1.6370372    3.4597117   -6.2602421 
H     4.1182548    2.6805693   -2.7562172 
H     4.6969645    2.2417972   -4.3885832 
H     3.3633675    1.3270871   -3.6541900 
H     0.9427578    5.3311420   -4.5807432 
H    -1.7182321    4.0817048   -1.4267147 
H    -2.2710767    6.2949769   -1.3692347 
H    -3.2060786    7.0536765   -2.6848832 
H    -3.2517657    5.2864876   -2.4751635 
H    -1.2152499    8.2388984   -3.5590275 
H     0.2844760    7.3719915   -3.9820373 
H    -0.1947267    7.5331323   -2.2706757 
H    -2.5900817    6.7273970   -5.0957584 
H    -2.5166569    4.9481791   -4.9085224 
H    -1.1131758    5.8399306   -5.5606853 
