197
Energy =
C    -1.7233643    2.5480944    2.0808973 
C    -2.8100805    1.6252305    1.9473001 
C    -2.7127217    0.3288748    2.5037860 
H    -3.6440344    1.8602800    1.2745841 
Pd   -1.0322225    0.7249978    1.0191249 
P    -0.9635974   -1.3134575   -0.0988542 
P     1.1235349    1.2886418    0.3663386 
H    -1.1173370    2.4766277    2.9937270 
H    -1.9645200    0.1950210    3.3014606 
C    -1.5114532    6.3980161    0.1571148 
C    -0.7096554    6.1050231    1.2699454 
C    -0.7834489    4.8488870    1.8827573 
C    -1.6627748    3.8541415    1.3971579 
C    -2.4545950    4.1588104    0.2642127 
C    -2.3853340    5.4175622   -0.3410636 
H    -1.4591756    7.3825903   -0.3189602 
H    -0.0272926    6.8607470    1.6713738 
H    -0.1514274    4.6297119    2.7487126 
H    -3.1271141    3.4025859   -0.1547915 
H    -3.0132602    5.6354880   -1.2110455 
C    -5.4639282   -2.9601363    2.2688023 
C    -4.2779582   -3.0643603    3.0107294 
C    -3.4001368   -1.9786001    3.0766647 
C    -3.6838702   -0.7678670    2.4017103 
C    -4.8804351   -0.6816322    1.6535259 
C    -5.7586700   -1.7671606    1.5886391 
H    -6.1588851   -3.8046352    2.2230950 
H    -4.0379304   -3.9913797    3.5417131 
H    -2.4755184   -2.0645546    3.6559538 
H    -5.1294645    0.2400847    1.1203865 
H    -6.6783067   -1.6844681    1.0011010 
C     0.7172271   -6.3338814   -1.1918147 
C     0.9661447   -6.3335848    0.3313648 
C     2.4747785   -6.5987608    0.5740141 
C     0.1193484   -7.4594198    0.9772136 
C     0.5852469   -4.9859364    0.9722293 
C     0.0193502   -3.9371708    0.2289423 
C     0.8234723   -4.7643975    2.3450863 
C     0.5554996   -3.5401543    2.9883346 
C     0.8497934   -3.3588630    4.4900874 
C    -0.1849984   -4.1884945    5.2939541 
C     2.2791327   -3.8557803    4.8206488 
C     0.7466046   -1.8774792    4.9175872 
C    -0.0048849   -2.5124420    2.2119413 
C    -0.2887080   -2.7149242    0.8522026 
C    -2.6473399   -1.7256256   -0.6865036 
C    -3.4002994   -0.6584193   -1.2166853 
C    -4.6509334   -0.8894852   -1.8108087 
C    -5.4929801    0.2462722   -2.4246046 
C    -4.9242618    1.6399113   -2.0800594 
C    -6.9454253    0.1770355   -1.8889402 
C    -5.4961782    0.0782052   -3.9662397 
C    -5.1153004   -2.2207808   -1.8496041 
C    -4.4065506   -3.3006960   -1.2882402 
C    -3.1575022   -3.0305856   -0.6960576 
C    -4.9525198   -4.7382426   -1.3944487 
C    -4.7122916   -5.2303543   -2.8464032 
C    -6.4697028   -4.7765045   -1.0875110 
C    -4.2354822   -5.6956070   -0.4157430 
C     0.0314236   -1.3144496   -1.6583920 
C    -0.6142841   -1.3722542   -2.9080964 
C     0.1285004   -1.3910247   -4.0951048 
C     1.5237494   -1.3762060   -4.0462494 
C     1.4505837   -1.2827556   -1.5912123 
C     2.1735029   -1.3509100   -2.8031571 
C     2.2177228   -1.2710282   -0.3095066 
C     3.0478407   -2.3847485   -0.0351161 
O     3.1249655   -3.4140711   -0.9546904 
C     4.3424207   -3.4287339   -1.7310022 
C     4.1392698   -2.6623109   -3.0369408 
O     3.5554284   -1.3710769   -2.7654158 
C     3.7796571   -2.4837288    1.1565194 
C     3.7548410   -1.4251719    2.0673550 
C     2.9909353   -0.2847094    1.7939063 
C     2.2092474   -0.1970812    0.6247380 
C     1.4071407    1.8066471   -1.3580768 
C     2.7159567    1.8127621   -1.8824384 
C     2.9459116    2.2308232   -3.1993600 
C     4.3545444    2.2548261   -3.8219465 
C     4.3831517    1.2990775   -5.0426558 
C     4.6859886    3.6997600   -4.2746953 
C     5.4328425    1.7903638   -2.8202632 
C     1.8280373    2.6327676   -3.9676387 
C     0.5125122    2.6289168   -3.4744806 
C     0.3175034    2.2062955   -2.1419428 
C    -0.7010817    3.0414990   -4.3321288 
C    -0.2808370    3.6454528   -5.6880180 
C    -1.5421498    4.0916043   -3.5662313 
C    -1.5718831    1.7872242   -4.5983710 
C     1.8487958    2.5923907    1.4339242 
C     2.5586552    3.6835977    0.9023883 
C     3.1024155    4.6616967    1.7518051 
C     3.9157989    5.8533100    1.2083552 
C     3.2244462    7.1801339    1.6122062 
C     5.3424261    5.8056684    1.8151405 
C     4.0392735    5.8157048   -0.3302863 
C     2.9078032    4.5162879    3.1435404 
C     2.1967250    3.4401111    3.7058974 
C     1.6577501    2.4858046    2.8216896 
C     2.0072303    3.2546618    5.2247802 
C     0.4987448    3.1091225    5.5507333 
C     2.5671029    4.4449431    6.0307370 
C     2.7523388    1.9650036    5.6590534 
H     1.0217352   -7.3056646   -1.6173427 
H    -0.3510563   -6.1873724   -1.4331168 
H     1.3024774   -5.5421088   -1.6914447 
H     2.7751541   -7.5508740    0.1012574 
H     3.0761923   -5.7813314    0.1408806 
H     2.7110956   -6.6711068    1.6497246 
H     0.3826738   -8.4377092    0.5369375 
H    -0.9583035   -7.2834823    0.8101327 
H     0.2888221   -7.5225566    2.0662800 
H    -0.1524884   -4.0451391   -0.8442939 
H     1.2587208   -5.5786615    2.9335375 
H    -0.1233080   -5.2599309    5.0355369 
H    -0.0052245   -4.0861560    6.3792344 
H    -1.2137282   -3.8474594    5.0802653 
H     2.4954949   -3.7026492    5.8925712 
H     3.0303952   -3.3035906    4.2308023 
H     2.4021492   -4.9314894    4.6095114 
H    -0.2795166   -1.4836714    4.8036847 
H     1.0176930   -1.7750962    5.9823260 
H     1.4293409   -1.2409600    4.3271231 
H    -0.2038982   -1.5272801    2.6415548 
H    -2.9838327    0.3533881   -1.1643485 
H    -5.5723465    2.4234811   -2.5083586 
H    -3.9110713    1.7908559   -2.4895165 
H    -4.8855224    1.7991592   -0.9872397 
H    -7.4384243   -0.7747859   -2.1487203 
H    -7.5494651    0.9933856   -2.3223219 
H    -6.9656440    0.2827680   -0.7897243 
H    -6.1000003    0.8727437   -4.4401978 
H    -5.9218359   -0.8963432   -4.2618268 
H    -4.4688566    0.1377628   -4.3669231 
H    -6.0774854   -2.4221260   -2.3299187 
H    -2.5719852   -3.8352998   -0.2479479 
H    -5.0886901   -6.2616218   -2.9713857 
H    -5.2310275   -4.5839225   -3.5760205 
H    -3.6348817   -5.2222053   -3.0889191 
H    -7.0566193   -4.1874125   -1.8125109 
H    -6.8372357   -5.8162290   -1.1375988 
H    -6.6794610   -4.3843152   -0.0781051 
H    -3.1646745   -5.8128829   -0.6592471 
H    -4.6949606   -6.6972850   -0.4726053 
H    -4.3143530   -5.3388020    0.6262274 
H    -1.7048059   -1.4144985   -2.9576326 
H    -0.3872854   -1.4285922   -5.0597205 
H     2.1256576   -1.3957080   -4.9595505 
H     4.5850501   -4.4854326   -1.9376379 
H     5.1620733   -2.9823302   -1.1392582 
H     5.1081176   -2.4840375   -3.5341813 
H     3.4831354   -3.2274969   -3.7235638 
H     4.3706416   -3.3852998    1.3423459 
H     4.3427697   -1.4763687    2.9893688 
H     3.0187076    0.5513286    2.4960300 
H     3.5408701    1.4693808   -1.2537801 
H     4.1646601    0.2672679   -4.7191375 
H     5.3813399    1.3153400   -5.5157233 
H     3.6432525    1.5901696   -5.8085068 
H     5.6968139    3.7376483   -4.7183615 
H     4.6579247    4.3952654   -3.4172738 
H     3.9725321    4.0658181   -5.0331945 
H     5.2451573    0.7565065   -2.4822967 
H     6.4242057    1.8169309   -3.3048132 
H     5.4779512    2.4494045   -1.9345131 
H     2.0021699    2.9543379   -4.9973733 
H    -0.6866864    2.1765276   -1.7041210 
H    -1.1792640    3.9477619   -6.2534217 
H     0.3512669    4.5410256   -5.5549956 
H     0.2710735    2.9186397   -6.3095559 
H    -0.9384658    4.9818954   -3.3188735 
H    -2.4017000    4.4131654   -4.1813179 
H    -1.9387385    3.6850853   -2.6220361 
H    -1.0145470    1.0447162   -5.1934004 
H    -2.4864015    2.0640286   -5.1533337 
H    -1.8747001    1.2985766   -3.6561615 
H     2.6798683    3.7625018   -0.1789171 
H     3.1168708    7.2697904    2.7071096 
H     3.8184496    8.0421716    1.2602947 
H     2.2199315    7.2473804    1.1606355 
H     5.3221046    5.8843687    2.9157547 
H     5.9480338    6.6449542    1.4293779 
H     5.8500478    4.8617319    1.5494673 
H     3.0519460    5.8629784   -0.8227709 
H     4.6273606    6.6833376   -0.6755351 
H     4.5559462    4.9029444   -0.6768987 
H     3.3317162    5.2732961    3.8077441 
H     1.0817615    1.6406257    3.2169631 
H     0.0583476    2.2187270    5.0675503 
H    -0.0676433    3.9968857    5.2187209 
H     0.3529418    2.9969497    6.6394950 
H     2.0687446    5.3916715    5.7571701 
H     2.3991257    4.2762712    7.1082940 
H     3.6539089    4.5666434    5.8796800 
H     3.8299911    2.0396741    5.4310203 
H     2.6388365    1.8025884    6.7457951 
H     2.3536759    1.0742340    5.1416941 
