206
Energy =
C    -0.9847131   -3.6612082    0.6707642 
C    -2.2906576   -3.1191418    0.6941931 
C    -2.8427798   -2.5197187   -0.4828017 
H    -2.8038256   -3.0027986    1.6566999 
Pd   -0.9800647   -1.4593370    0.0866626 
P    -0.9843029    0.3060908   -1.4415608 
P     0.8538888   -0.6776453    1.2683787 
H    -0.5707938   -3.9019077   -0.3218352 
H    -2.5432107   -2.9402861   -1.4523588 
C     1.3043829   -5.4130833    3.8551866 
C     1.8436329   -5.2793331    2.5671218 
C     1.0786658   -4.7059364    1.5480395 
C    -0.2387065   -4.2510664    1.7901719 
C    -0.7642183   -4.3847873    3.0954171 
C     0.0015347   -4.9588765    4.1147942 
H     1.8953897   -5.8722254    4.6539641 
H     2.8608981   -5.6247596    2.3553909 
H     1.5035136   -4.6002008    0.5466930 
H    -1.7810044   -4.0481559    3.3161621 
H    -0.4200257   -5.0535769    5.1203271 
C    -6.4379242   -0.1509429   -0.6156871 
C    -5.8190717   -0.4104922    0.6187413 
C    -4.6546710   -1.1817780    0.6760759 
C    -4.0870547   -1.7285357   -0.5000101 
C    -4.7253995   -1.4673034   -1.7340393 
C    -5.8845264   -0.6836703   -1.7890650 
H    -7.3459285    0.4591794   -0.6597069 
H    -6.2452075   -0.0034189    1.5416993 
H    -4.1734876   -1.3489578    1.6453716 
H    -4.3004768   -1.8792075   -2.6560302 
H    -6.3616387   -0.4917237   -2.7553435 
C     2.5278612   -3.4340043    7.0403832 
C     2.8961084   -2.3403014    6.0087309 
C     3.3424822   -1.0585460    6.7612910 
C     4.0765140   -2.8559805    5.1551049 
C     1.6821636   -1.9716734    5.1329466 
C     1.8306175   -1.6695965    3.7651229 
C     0.3987412   -1.8509969    5.6981211 
C    -0.7400024   -1.4876203    4.9505750 
C    -2.1185352   -1.3791156    5.6324165 
C    -2.3657050   -2.5946502    6.5595582 
C    -2.1391602   -0.0732553    6.4693304 
C    -3.2681255   -1.3265294    4.6031631 
C    -0.5545754   -1.1935792    3.5903159 
C     0.7283854   -1.2520260    3.0068996 
C     2.5026704   -1.1201718    0.6229318 
C     3.6732812   -0.5696021    1.1814417 
C     4.9338326   -0.9851835    0.7272628 
C     6.2448599   -0.4702106    1.3529044 
C     6.9416539   -1.6507838    2.0788678 
C     5.9871632    0.6582815    2.3738839 
C     7.1832533    0.0743377    0.2470986 
C     4.9801182   -1.9369394   -0.3173217 
C     3.8300704   -2.4698181   -0.9255790 
C     2.5810907   -2.0440027   -0.4299081 
C     3.8965804   -3.4551442   -2.1118160 
C     5.3313281   -3.9638953   -2.3656249 
C     2.9898455   -4.6818900   -1.8431898 
C     3.3964138   -2.7259563   -3.3843376 
C     0.8175825    1.1632433    1.4259680 
C     0.4316803    1.7667088    2.6409444 
C     0.3215604    3.1579741    2.7256183 
C     0.5999493    3.9674023    1.6198794 
C     1.1013955    1.9633946    0.2940233 
C     1.0003474    3.3756127    0.4088869 
C     1.5763033    1.4266521   -1.0169388 
C     2.9138423    1.7214773   -1.3889560 
O     3.6567095    2.3739257   -0.4486129 
C     4.8330732    3.0890153   -0.8716015 
C     4.5043733    4.3442886   -1.6968808 
C     4.2625406    5.6251533   -0.8780004 
C     3.0629873    5.6322416    0.0868970 
C     1.6867246    5.4646727   -0.5795036 
O     1.3015817    4.0838692   -0.7178445 
C     3.4026316    1.3472763   -2.6536928 
C     2.5567259    0.6945438   -3.5553651 
C     1.2357337    0.3914510   -3.2095246 
C     0.7415223    0.7508040   -1.9396992 
C    -1.7693545    1.8853039   -0.9780430 
C    -2.4813364    1.9653483    0.2300873 
C    -3.0929892    3.1726068    0.6114033 
C    -3.8715564    3.3255539    1.9320124 
C    -3.3845862    4.5856255    2.6904824 
C    -3.6726006    2.1037358    2.8527056 
C    -5.3800020    3.4664784    1.6013726 
C    -2.9983879    4.2610859   -0.2779374 
C    -2.2907882    4.2100084   -1.4958182 
C    -1.6503115    3.0033057   -1.8246113 
C    -2.2776877    5.4322073   -2.4352811 
C    -1.2850668    5.2439224   -3.6023181 
C    -3.7056562    5.6149481   -3.0137793 
C    -1.8800847    6.7105460   -1.6567144 
C    -1.7679981   -0.2820425   -2.9928460 
C    -1.3947161   -1.5707317   -3.4253404 
C    -1.9672812   -2.1445782   -4.5695616 
C    -1.6125869   -3.5673124   -5.0418063 
C    -2.8930882   -4.4405577   -4.9914297 
C    -1.0718747   -3.5105612   -6.4929018 
C    -0.5387869   -4.2236580   -4.1471167 
C    -2.9211146   -1.3765646   -5.2719257 
C    -3.3195651   -0.0889227   -4.8661314 
C    -2.7319003    0.4488278   -3.7023729 
C    -4.3479591    0.6984513   -5.7023642 
C    -4.7827065    2.0019473   -4.9995314 
C    -5.6083943   -0.1668074   -5.9536796 
C    -3.6944932    1.0617172   -7.0617691 
H     1.7655168   -3.0894825    7.7595467 
H     2.1424644   -4.3379958    6.5392479 
H     3.4215691   -3.7159192    7.6239178 
H     2.5287397   -0.6697416    7.3984064 
H     3.6251905   -0.2643889    6.0475461 
H     4.2138253   -1.2725863    7.4062753 
H     4.9018329   -3.1763547    5.8139147 
H     3.7767624   -3.7162548    4.5316585 
H     4.4762248   -2.0720585    4.4889390 
H     2.8080282   -1.7495376    3.2866003 
H     0.2767784   -2.0599535    6.7643375 
H    -3.3642888   -2.5180598    7.0240500 
H    -1.6270092   -2.6550216    7.3763061 
H    -2.3246212   -3.5400925    5.9902987 
H    -1.3408813   -0.0781337    7.2317293 
H    -3.1088685    0.0413346    6.9865138 
H    -1.9863804    0.8074720    5.8203223 
H    -3.2031159   -0.4393812    3.9529683 
H    -3.2756451   -2.2275798    3.9636919 
H    -4.2380190   -1.2804209    5.1271393 
H    -1.4028985   -0.8977629    2.9634777 
H     3.5809033    0.1866824    1.9640979 
H     7.8849877   -1.3123556    2.5436343 
H     7.1818979   -2.4693799    1.3785071 
H     6.2930138   -2.0619082    2.8717845 
H     6.9478480    1.0294960    2.7702653 
H     5.4551770    1.5074236    1.9102740 
H     5.3896281    0.3052271    3.2332999 
H     6.7044930    0.9041277   -0.2992032 
H     7.4539848   -0.7048914   -0.4855935 
H     8.1200812    0.4502698    0.6948773 
H     5.9608429   -2.2642549   -0.6708071 
H     1.6487079   -2.4153702   -0.8701586 
H     5.3269300   -4.6850876   -3.2010241 
H     5.7440956   -4.4764233   -1.4787622 
H     6.0153856   -3.1430946   -2.6433016 
H     3.2991724   -5.2113925   -0.9252116 
H     1.9287385   -4.3949715   -1.7398325 
H     3.0537924   -5.3919493   -2.6862232 
H     3.3975431   -3.4147948   -4.2484872 
H     2.3719297   -2.3394439   -3.2486689 
H     4.0457990   -1.8664015   -3.6208018 
H     0.2316914    1.1546051    3.5229754 
H     0.0250409    3.6210188    3.6724938 
H     0.5118980    5.0524933    1.7074840 
H     5.5017692    2.4084523   -1.4293952 
H     5.3453553    3.3475136    0.0695818 
H     5.3529606    4.5321872   -2.3803749 
H     3.6356253    4.1203101   -2.3438982 
H     5.1765755    5.8464499   -0.2938974 
H     4.1474354    6.4685189   -1.5858632 
H     3.1737124    4.8491186    0.8601216 
H     3.0661347    6.5968751    0.6270867 
H     0.9048608    6.0167013   -0.0273478 
H     1.6873385    5.8496640   -1.6122493 
H     4.4305333    1.5749454   -2.9444595 
H     2.9333880    0.4207855   -4.5461275 
H     0.5871519   -0.1056223   -3.9344957 
H    -2.5339666    1.0774741    0.8657887 
H    -3.9247439    4.6831837    3.6488844 
H    -2.3042023    4.5179953    2.9044044 
H    -3.5622027    5.5100613    2.1149549 
H    -4.2095944    2.2577435    3.8047752 
H    -2.6042134    1.9458503    3.0843008 
H    -4.0686683    1.1832976    2.3929413 
H    -5.9713756    3.5648672    2.5296596 
H    -5.7405795    2.5827542    1.0472198 
H    -5.5713250    4.3585737    0.9797977 
H    -3.4990551    5.1963515   -0.0077460 
H    -1.0508097    2.9180330   -2.7340160 
H    -1.5750863    4.4020323   -4.2556241 
H    -1.2648246    6.1536489   -4.2268091 
H    -0.2614252    5.0561400   -3.2327620 
H    -4.0205406    4.7176925   -3.5737869 
H    -3.7350925    6.4805691   -3.6997909 
H    -4.4436266    5.7897199   -2.2113863 
H    -1.8702755    7.5804576   -2.3369277 
H    -0.8747378    6.6066403   -1.2164184 
H    -2.5881216    6.9362985   -0.8413321 
H    -0.6520016   -2.1244185   -2.8418615 
H    -3.6836453   -4.0421744   -5.6502490 
H    -3.2970952   -4.4835089   -3.9639684 
H    -2.6682586   -5.4714875   -5.3179239 
H    -0.1603179   -2.8896182   -6.5470670 
H    -0.8209530   -4.5260944   -6.8471292 
H    -1.8151032   -3.0861517   -7.1893113 
H     0.4048988   -3.6506638   -4.1496897 
H    -0.3144138   -5.2380368   -4.5188025 
H    -0.8813853   -4.3250516   -3.1009248 
H    -3.3766886   -1.8058451   -6.1701736 
H    -3.0316921    1.4317475   -3.3354564 
H    -5.5388308    2.5213528   -5.6127730 
H    -5.2265598    1.8037150   -4.0077559 
H    -3.9335294    2.6946612   -4.8655751 
H    -6.0818017   -0.4629482   -5.0017465 
H    -5.3744845   -1.0864172   -6.5165272 
H    -6.3478409    0.4035723   -6.5427746 
H    -2.7942834    1.6829128   -6.9095632 
H    -3.3937478    0.1570826   -7.6185795 
H    -4.4049661    1.6284505   -7.6898319 
