200
Energy =
C     0.8839183   -2.8991054    2.1582548 
C     0.6253927   -1.9659658    3.2141071 
C    -0.6757872   -1.4455147    3.4005451 
H     1.4628778   -1.5213886    3.7656530 
Pd    0.1071930   -1.0104622    1.3014490 
P    -0.5319902    1.1973921    1.0127204 
P     0.3226125   -1.4199074   -0.9852224 
H     0.0767591   -3.5929620    1.8864573 
H    -1.5019521   -2.0177914    2.9484666 
C     4.7972492   -4.1220480    0.8346945 
C     4.6600166   -2.9852919    1.6489912 
C     3.3963801   -2.5810163    2.0894555 
C     2.2362181   -3.3136752    1.7397034 
C     2.3903915   -4.4605201    0.9274099 
C     3.6562459   -4.8553839    0.4779204 
H     5.7869216   -4.4335749    0.4852401 
H     5.5445904   -2.4077527    1.9372691 
H     3.3103941   -1.6768392    2.7016474 
H     1.5052954   -5.0396934    0.6419667 
H     3.7519492   -5.7450639   -0.1523672 
C    -2.0795635    1.4919084    6.2021414 
C    -2.9526884    0.9010737    5.2767291 
C    -2.4712273   -0.0529600    4.3765527 
C    -1.1098288   -0.4377169    4.3766300 
C    -0.2418454    0.1715358    5.3111534 
C    -0.7241728    1.1260377    6.2118296 
H    -2.4534062    2.2326868    6.9160748 
H    -4.0108657    1.1818579    5.2581186 
H    -3.1543010   -0.5089015    3.6553953 
H     0.8153334   -0.1061429    5.3419775 
H    -0.0387321    1.5903324    6.9274502 
C    -0.7388591    6.4649591    3.9043650 
C    -1.2195130    5.1717235    4.6149464 
C    -2.7261596    4.9723541    4.3295836 
C    -1.0319199    5.3302641    6.1430719 
C    -0.3808195    3.9981500    4.0712656 
C    -0.8557293    3.1923719    3.0183786 
C     0.9158282    3.7463573    4.5585248 
C     1.7324425    2.7042016    4.0721427 
C     3.1439345    2.4824690    4.6516423 
C     4.0662384    3.6079518    4.1139459 
C     3.1123962    2.5318616    6.1990831 
C     3.7322606    1.1177897    4.2323442 
C     1.2244066    1.9178982    3.0260258 
C    -0.0490492    2.1810504    2.4806680 
C    -2.2969891    1.4952158    0.6641288 
C    -2.7387567    2.7577986    0.2236812 
C    -4.0976866    2.9756937   -0.0414802 
C    -4.6292922    4.3300167   -0.5458617 
C    -5.6282018    4.9045502    0.4903240 
C    -5.3451854    4.1120785   -1.9037932 
C    -3.4909692    5.3506926   -0.7564950 
C    -4.9906285    1.8962783    0.1496607 
C    -4.5765944    0.6182678    0.5646089 
C    -3.2018811    0.4344518    0.8160659 
C    -5.5530648   -0.5697955    0.6954357 
C    -5.2871997   -1.5528051   -0.4728563 
C    -5.3269471   -1.3095421    2.0372160 
C    -7.0277808   -0.1178635    0.6375087 
C     0.3946159    2.0079422   -0.3680239 
C     1.4466288    2.9059813   -0.0943177 
C     2.1887466    3.4677096   -1.1399166 
C     1.8878347    3.1594313   -2.4704751 
C     0.0769704    1.6827444   -1.7096045 
C     0.8243610    2.2886362   -2.7503051 
C    -1.0443753    0.7856381   -2.1255527 
C    -2.1075586    1.3770666   -2.8491552 
O    -2.0873414    2.7407351   -2.9866871 
C    -2.1399690    3.3185241   -4.3109580 
C    -0.7977780    3.9764625   -4.6433276 
C     0.3193867    2.9938468   -5.0059352 
O     0.4735010    1.9435443   -4.0317321 
C    -3.1566399    0.6019885   -3.3668342 
C    -3.1327202   -0.7854578   -3.1968645 
C    -2.0888198   -1.3962186   -2.4900283 
C    -1.0461806   -0.6214033   -1.9450410 
C     1.8435885   -0.8757801   -1.8292385 
C     2.9265896   -0.4135261   -1.0647274 
C     4.0963818    0.0418855   -1.6996962 
C     5.3116321    0.5647835   -0.9099695 
C     6.4309497   -0.5066791   -0.9713886 
C     4.9523037    0.8351959    0.5664406 
C     5.8251772    1.8890199   -1.5279934 
C     4.1390813   -0.0154477   -3.1062813 
C     3.0635185   -0.4669422   -3.8981138 
C     1.9011148   -0.8896684   -3.2349978 
C     3.1861178   -0.4783598   -5.4334652 
C     4.2786445   -1.4997164   -5.8414757 
C     3.5835693    0.9352737   -5.9287407 
C     1.8562577   -0.8723706   -6.1102277 
C     0.1222545   -3.2133517   -1.3029521 
C    -0.9199836   -3.8643138   -0.6131084 
C    -1.1258351   -5.2447061   -0.7535749 
C    -2.2308742   -5.9934451    0.0155211 
C    -3.1706299   -6.7036731   -0.9914378 
C    -3.0794524   -5.0402390    0.8851436 
C    -1.5662774   -7.0426767    0.9441695 
C    -0.2537787   -5.9474014   -1.6137213 
C     0.8010285   -5.3285072   -2.3113426 
C     0.9829712   -3.9416469   -2.1365632 
C     1.6950107   -6.1533263   -3.2585824 
C     2.9156711   -5.3435960   -3.7475210 
C     2.2097709   -7.4260602   -2.5407017 
C     0.8445932   -6.5665243   -4.4886297 
H    -1.3125749    7.3387615    4.2625979 
H    -0.8752566    6.3842849    2.8112271 
H     0.3317200    6.6500374    4.1013845 
H    -3.3042193    5.7881185    4.7966921 
H    -2.9507006    4.9910187    3.2487015 
H    -3.0879612    4.0130119    4.7388032 
H    -1.6806380    6.1404795    6.5187624 
H     0.0053009    5.5941112    6.4109779 
H    -1.2973262    4.4001798    6.6739812 
H    -1.8526643    3.3555793    2.6050147 
H     1.3044991    4.3809856    5.3595083 
H     5.0907178    3.4934466    4.5117826 
H     4.1172405    3.5756660    3.0109457 
H     3.6922018    4.6036589    4.4093417 
H     2.7641224    3.5067433    6.5791573 
H     2.4484173    1.7487518    6.6055426 
H     4.1260091    2.3633259    6.6028980 
H     3.0907662    0.2828496    4.5677359 
H     3.8619610    1.0386569    3.1409813 
H     4.7256250    0.9816493    4.6928953 
H     1.8158112    1.0966320    2.6069414 
H    -2.0039714    3.5500795    0.0646626 
H    -5.1317015    5.0659328    1.4636668 
H    -6.4830798    4.2255088    0.6529425 
H    -6.0277539    5.8734426    0.1411639 
H    -4.6481722    3.6614934   -2.6305754 
H    -6.2177623    3.4436493   -1.8054628 
H    -5.7043801    5.0755652   -2.3072563 
H    -2.9644287    5.5770355    0.1881897 
H    -3.9079061    6.2986306   -1.1383248 
H    -2.7520378    4.9797964   -1.4877678 
H    -6.0509009    2.0643243   -0.0549071 
H    -2.8138241   -0.5466514    1.1113082 
H    -5.4780173   -1.0646989   -1.4432082 
H    -5.9443633   -2.4373869   -0.3897098 
H    -4.2385930   -1.8968692   -0.4750670 
H    -5.4585029   -0.6271454    2.8950351 
H    -6.0525212   -2.1351782    2.1411774 
H    -4.3183907   -1.7552812    2.0966096 
H    -7.2602563    0.6109650    1.4339360 
H    -7.6895542   -0.9906975    0.7725021 
H    -7.2805946    0.3378953   -0.3355612 
H     1.6818379    3.1774290    0.9374504 
H     3.0075164    4.1580582   -0.9125110 
H     2.4736459    3.5889941   -3.2878099 
H    -2.4056491    2.5429765   -5.0531286 
H    -2.9417814    4.0765707   -4.2954499 
H    -0.9355674    4.6632979   -5.4997196 
H    -0.4950584    4.5965146   -3.7800879 
H     1.2738453    3.5318597   -5.1627505 
H     0.0845474    2.4536680   -5.9375968 
H    -3.9788052    1.0909506   -3.8980166 
H    -3.9377987   -1.4003345   -3.6117986 
H    -2.0806866   -2.4831225   -2.3768626 
H     2.8313896   -0.4013106    0.0245626 
H     7.3186300   -0.1721518   -0.4043527 
H     6.0795925   -1.4610845   -0.5428095 
H     6.7419795   -0.6959644   -2.0136904 
H     4.6584011   -0.0897734    1.0892404 
H     5.8260310    1.2527744    1.0962890 
H     4.1228496    1.5600912    0.6488139 
H     5.0273251    2.6514810   -1.5359938 
H     6.6728180    2.2780277   -0.9366018 
H     6.1809030    1.7549042   -2.5636342 
H     5.0500862    0.3196900   -3.6122083 
H     1.0223145   -1.2107474   -3.7987573 
H     5.2588767   -1.2398816   -5.4051464 
H     4.0128003   -2.5150514   -5.4983725 
H     4.3914492   -1.5237056   -6.9402559 
H     3.6479795    0.9501067   -7.0312684 
H     4.5640755    1.2509147   -5.5330296 
H     2.8316741    1.6771252   -5.6118877 
H     1.0434203   -0.1817374   -5.8251887 
H     1.5497429   -1.8995015   -5.8430886 
H     1.9714973   -0.8369654   -7.2073978 
H    -1.5637966   -3.2727047    0.0452990 
H    -3.6515152   -5.9704049   -1.6627050 
H    -3.9636250   -7.2520226   -0.4526492 
H    -2.6248972   -7.4309765   -1.6165569 
H    -3.8564418   -5.6160245    1.4163793 
H    -2.4678353   -4.5281735    1.6504536 
H    -3.5896136   -4.2723734    0.2773432 
H    -0.9800824   -7.7808961    0.3704917 
H    -2.3355356   -7.5921043    1.5154305 
H    -0.8850606   -6.5533073    1.6633800 
H    -0.4015950   -7.0250148   -1.7378930 
H     1.8022476   -3.4239543   -2.6379562 
H     3.5348845   -4.9913711   -2.9034019 
H     3.5478880   -5.9785417   -4.3915481 
H     2.6144261   -4.4646367   -4.3442027 
H     2.8592498   -8.0062273   -3.2193766 
H     1.3851329   -8.0881895   -2.2264651 
H     2.7967107   -7.1650883   -1.6432571 
H     0.4693879   -5.6754680   -5.0221173 
H    -0.0260526   -7.1754534   -4.1884217 
H     1.4521870   -7.1624860   -5.1930042 
