200
Energy =
C     3.4018752    0.2411349    1.4908444 
C     3.4134245    1.5416092    0.8978674 
C     2.4974027    2.5426212    1.2881389 
H     4.0168993    1.7146122   -0.0027142 
Pd    1.4124546    0.6546727    0.5939841 
P    -0.4374731    1.5062554   -0.5427104 
P     0.4539168   -1.4561129    0.8302340 
H     3.1278690    0.1652339    2.5515442 
H     1.9863433    2.4183194    2.2567872 
C     5.6836169   -3.0865882   -0.0223254 
C     5.2545354   -3.0603727    1.3121790 
C     4.5144377   -1.9751045    1.7975888 
C     4.1894056   -0.8878077    0.9567898 
C     4.6256750   -0.9294891   -0.3893762 
C     5.3664644   -2.0121439   -0.8709737 
H     6.2619817   -3.9356544   -0.4007968 
H     5.4978032   -3.8897198    1.9834209 
H     4.1774314   -1.9682603    2.8396839 
H     4.3702893   -0.1107758   -1.0712451 
H     5.6976168   -2.0208074   -1.9147085 
C     2.2570241    6.4968281   -0.3818848 
C     1.1664786    5.9462056    0.3090756 
C     1.2568002    4.6643045    0.8585891 
C     2.4342921    3.8963193    0.7119255 
C     3.5307440    4.4680183    0.0279292 
C     3.4429075    5.7574395   -0.5085252 
H     2.1869816    7.5014136   -0.8110353 
H     0.2378760    6.5160394    0.4164657 
H     0.3958483    4.2357161    1.3818567 
H     4.4719521    3.9149602   -0.0523441 
H     4.3091424    6.1927264   -1.0172816 
C     2.7586741   -1.1311818   -4.0027957 
C     2.2510770   -2.5864783   -4.0934459 
C     3.4686794   -3.5450271   -4.1479045 
C     1.4231900   -2.7250803   -5.3951638 
C     1.3900346   -2.9638694   -2.8724931 
C     1.3227355   -2.1565038   -1.7234082 
C     0.6520569   -4.1631539   -2.8682729 
C    -0.1652160   -4.5678775   -1.7926625 
C    -0.9660759   -5.8802227   -1.8859843 
C    -1.8792263   -5.8260199   -3.1375500 
C     0.0200445   -7.0696238   -2.0077627 
C    -1.8565514   -6.0977507   -0.6445399 
C    -0.2259189   -3.7290700   -0.6688852 
C     0.5247268   -2.5396914   -0.6340561 
C     1.1996327   -2.3888739    2.2219553 
C     1.3572879   -1.7163002    3.4459201 
C     1.9203920   -2.3619280    4.5621015 
C     2.0401651   -1.5993425    5.8960746 
C     0.6113836   -1.3570484    6.4496555 
C     2.7398477   -0.2364964    5.6578467 
C     2.8531203   -2.3854704    6.9455719 
C     2.3317684   -3.6994441    4.4015010 
C     2.2098033   -4.3945341    3.1793076 
C     1.6403612   -3.7156892    2.0869901 
C     2.6274242   -5.8745646    3.0689539 
C     3.9476488   -6.1402185    3.8323205 
C     1.4949209   -6.7308987    3.6961644 
C     2.8231473   -6.3038860    1.5968045 
C    -1.3448519   -1.3401105    1.2615901 
C    -1.7802943   -1.5606665    2.5838391 
C    -3.1336408   -1.4297866    2.9170310 
C    -4.0762255   -1.0920611    1.9409959 
C    -2.2863984   -0.9944445    0.2592016 
C    -3.6532663   -0.8934313    0.6186397 
C    -1.9534554   -0.8059304   -1.1861340 
C    -2.4942580   -1.7429378   -2.1007125 
O    -3.1973262   -2.7957194   -1.5755439 
C    -4.5586687   -3.0215164   -2.0064413 
C    -5.5155113   -2.7684843   -0.8380015 
C    -5.7503510   -1.2886892   -0.5226739 
O    -4.5206633   -0.5494767   -0.3884776 
C    -2.2690761   -1.6275954   -3.4805374 
C    -1.5256377   -0.5474895   -3.9678414 
C    -0.9942059    0.4016599   -3.0865680 
C    -1.2004296    0.2806320   -1.6971152 
C    -1.7908044    2.0773331    0.5400987 
C    -3.0800905    2.3406645    0.0365785 
C    -4.0862550    2.8148976    0.8900974 
C    -5.5082078    3.1289455    0.3879516 
C    -5.8013463    4.6351129    0.6095101 
C    -6.5274492    2.2737566    1.1830054 
C    -5.6718667    2.8100404   -1.1131081 
C    -3.7660122    3.0033240    2.2555322 
C    -2.4958326    2.7280567    2.7890193 
C    -1.5095808    2.2572750    1.9005043 
C    -2.1364143    2.9260914    4.2743652 
C    -3.3482277    3.3818616    5.1121599 
C    -1.0259213    4.0039214    4.3792210 
C    -1.6092980    1.5899742    4.8570233 
C     0.0157389    2.8950638   -1.6467003 
C     1.2559664    2.8008644   -2.3022020 
C     1.6354912    3.7540883   -3.2631322 
C     2.9315589    3.5986965   -4.0830239 
C     2.5505550    2.9632544   -5.4468235 
C     3.9507478    2.6789071   -3.3726487 
C     3.6052031    4.9702140   -4.3260172 
C     0.7446103    4.8179814   -3.5067063 
C    -0.4886489    4.9601653   -2.8376184 
C    -0.8460721    3.9736577   -1.9028024 
C    -1.4069164    6.1557843   -3.1601722 
C    -0.6414221    7.4813941   -2.9171764 
C    -1.8355653    6.0703764   -4.6481359 
C    -2.6779405    6.1615334   -2.2836441 
H     3.3263647   -0.8728482   -4.9133599 
H     3.4320780   -0.9870522   -3.1412628 
H     1.9194118   -0.4189898   -3.9106834 
H     4.1203465   -3.2945526   -5.0045001 
H     4.0633624   -3.4722579   -3.2210452 
H     3.1443658   -4.5942689   -4.2606540 
H     2.0359309   -2.4326354   -6.2661264 
H     0.5322699   -2.0750935   -5.3617617 
H     1.0842809   -3.7614374   -5.5629663 
H     1.8715059   -1.2129447   -1.6616829 
H     0.7047950   -4.8090408   -3.7507904 
H    -2.4887852   -6.7444790   -3.2080064 
H    -2.5552444   -4.9569072   -3.0746942 
H    -1.2948502   -5.7393419   -4.0697145 
H     0.6601979   -6.9781555   -2.9023821 
H     0.6788524   -7.1235984   -1.1231330 
H    -0.5348682   -8.0217418   -2.0842962 
H    -2.4301020   -7.0339986   -0.7574897 
H    -1.2559523   -6.1861657    0.2786267 
H    -2.5729070   -5.2676324   -0.5169015 
H    -0.8718071   -3.9746290    0.1770809 
H     1.0330101   -0.6718208    3.5244193 
H     0.0971676   -2.3160614    6.6358666 
H    -0.0011441   -0.7735690    5.7407013 
H     0.6556936   -0.7975964    7.4013358 
H     3.7434676   -0.3786491    5.2191476 
H     2.1570550    0.4144568    4.9818692 
H     2.8561850    0.3045720    6.6132615 
H     2.3676676   -3.3412742    7.2090110 
H     2.9360857   -1.7917836    7.8720890 
H     3.8759754   -2.6007086    6.5892583 
H     2.7672224   -4.2214652    5.2557776 
H     1.5444206   -4.2122737    1.1205050 
H     4.7657036   -5.5065888    3.4481726 
H     4.2454741   -7.1960059    3.7095836 
H     3.8498722   -5.9528774    4.9150305 
H     0.5419943   -6.5703069    3.1614259 
H     1.7477519   -7.8050909    3.6408671 
H     1.3392156   -6.4673182    4.7570898 
H     1.8799918   -6.2635225    1.0243017 
H     3.1833889   -7.3462993    1.5590239 
H     3.5629675   -5.6641247    1.0841610 
H    -1.0665354   -1.8527350    3.3571953 
H    -3.4558136   -1.5991400    3.9496599 
H    -5.1324377   -0.9827120    2.2017591 
H    -4.7937996   -2.3745322   -2.8718843 
H    -4.6229769   -4.0748176   -2.3296121 
H    -6.4961237   -3.2263413   -1.0674623 
H    -5.1173600   -3.2904600    0.0510537 
H    -6.2683586   -0.7844062   -1.3548023 
H    -6.3810611   -1.1764228    0.3799210 
H    -2.6712425   -2.3865402   -4.1581082 
H    -1.3567887   -0.4422711   -5.0443503 
H    -0.4259782    1.2468178   -3.4832321 
H    -3.2884113    2.1432551   -1.0171567 
H    -6.8184376    4.8829090    0.2568165 
H    -5.7375840    4.9110703    1.6763990 
H    -5.0803853    5.2589352    0.0519885 
H    -6.4974448    2.4960442    2.2634598 
H    -7.5541981    2.4720321    0.8274397 
H    -6.3120418    1.2003427    1.0481923 
H    -5.4565712    1.7483463   -1.3224436 
H    -6.7085900    3.0218525   -1.4269650 
H    -5.0036298    3.4305148   -1.7363240 
H    -4.5495015    3.3712832    2.9226370 
H    -0.5074864    2.0053213    2.2657331 
H    -3.7399485    4.3553499    4.7687538 
H    -4.1685360    2.6434128    5.0748898 
H    -3.0488082    3.4979125    6.1680111 
H    -0.7569161    4.1771688    5.4364464 
H    -1.3639959    4.9615610    3.9464631 
H    -0.1088815    3.6958432    3.8460069 
H    -0.7162812    1.2329468    4.3146513 
H    -2.3771870    0.8008269    4.7905395 
H    -1.3296338    1.7180557    5.9177573 
H     1.9138742    1.9587716   -2.0625416 
H     2.0844824    1.9725559   -5.3002256 
H     3.4484959    2.8333594   -6.0776810 
H     1.8336891    3.6007557   -5.9933175 
H     4.8858351    2.6368105   -3.9570645 
H     4.1920309    3.0591490   -2.3651188 
H     3.5798498    1.6442222   -3.2765497 
H     2.9751976    5.6409945   -4.9342805 
H     4.5548139    4.8313521   -4.8716031 
H     3.8229301    5.4762581   -3.3703816 
H     1.0214737    5.5701859   -4.2512647 
H    -1.7915020    4.0411966   -1.3623746 
H     0.2694568    7.5493224   -3.5363606 
H    -1.2843203    8.3435729   -3.1682891 
H    -0.3409787    7.5714662   -1.8594402 
H    -2.4992099    6.9154020   -4.9046574 
H    -2.3798648    5.1300060   -4.8448693 
H    -0.9643661    6.1079344   -5.3248438 
H    -3.2972627    7.0400636   -2.5332211 
H    -2.4332653    6.2173630   -1.2077305 
H    -3.2957147    5.2613764   -2.4504044 
