206
Energy =
C     0.2215253    1.5328756   -3.5524545 
C    -0.8848663    0.6563850   -3.7913959 
C    -2.1072642    0.8612795   -3.1101773 
H    -0.7351709   -0.2619451   -4.3728174 
Pd   -0.3849874    0.5488214   -1.6548299 
P    -1.4416612   -0.8201851   -0.0898134 
P     1.3122632    1.1810299   -0.1986653 
H    -0.0160533    2.5780012   -3.3102610 
H    -2.2690615    1.8678093   -2.6928056 
C     4.1838340    0.9781199   -5.1505537 
C     3.7265708    2.2538729   -4.7901361 
C     2.4386642    2.4187608   -4.2681909 
C     1.5764878    1.3137295   -4.0939543 
C     2.0562787    0.0305775   -4.4480047 
C     3.3406225   -0.1323321   -4.9767846 
H     5.1899441    0.8463571   -5.5618934 
H     4.3722596    3.1291380   -4.9170839 
H     2.0919036    3.4171610   -3.9878463 
H     1.4229501   -0.8501368   -4.2955983 
H     3.6909604   -1.1326697   -5.2506880 
C    -5.7114642   -1.4706826   -3.2018807 
C    -5.6318633   -0.2972687   -2.4374608 
C    -4.4492708    0.4479704   -2.4264636 
C    -3.3199793    0.0356840   -3.1724135 
C    -3.4137329   -1.1540114   -3.9302567 
C    -4.5973728   -1.8972948   -3.9434838 
H    -6.6399595   -2.0501102   -3.2227124 
H    -6.4932004    0.0407349   -1.8519539 
H    -4.3905603    1.3621349   -1.8276021 
H    -2.5582942   -1.4995635   -4.5175246 
H    -4.6513855   -2.8174436   -4.5337689 
C    -5.7351063    3.6346822    0.4358639 
C    -4.3059886    3.5428939    1.0299703 
C    -3.3077363    4.1583850    0.0247966 
C    -4.2359291    4.3617679    2.3436696 
C    -3.9834435    2.0649440    1.3224288 
C    -2.9974770    1.3619552    0.6135415 
C    -4.6970069    1.3589578    2.3123241 
C    -4.4308854    0.0152569    2.6465112 
C    -5.2817777   -0.7035765    3.7124651 
C    -5.4175117    0.1682193    4.9850541 
C    -6.6906581   -0.9527644    3.1114377 
C    -4.6640474   -2.0595021    4.1180317 
C    -3.4109833   -0.6460640    1.9383636 
C    -2.7266384    0.0139100    0.9029649 
C    -2.1724884   -2.2528073   -0.9731612 
C    -3.3984283   -2.8379372   -0.6268277 
C    -3.8283264   -4.0196740   -1.2612769 
C    -5.1202660   -4.7452110   -0.8362201 
C    -6.0294152   -3.8393676    0.0228256 
C    -4.7131914   -5.9857880    0.0026506 
C    -5.9249990   -5.2098765   -2.0748378 
C    -3.0021692   -4.5677281   -2.2605318 
C    -1.7915079   -3.9736337   -2.6706386 
C    -1.3854245   -2.8064870   -2.0038900 
C    -0.9617347   -4.6140378   -3.8006029 
C    -0.3897910   -5.9626175   -3.2920026 
C    -1.8619752   -4.8638572   -5.0373201 
C     0.2106982   -3.7117450   -4.2396111 
C    -0.3252430   -1.6146100    1.1445900 
C    -0.0789618   -3.0013620    1.1049665 
C     0.7836859   -3.5802048    2.0415177 
C     1.4033316   -2.8001125    3.0227866 
C     0.2966195   -0.8045155    2.1233256 
C     1.1562577   -1.4165112    3.0724135 
C     0.0343206    0.6582585    2.2829288 
C    -0.6821831    1.0520542    3.4451083 
O    -1.1277961    0.0318701    4.2322748 
C    -1.4812818    0.3160724    5.5983089 
C    -0.2547817    0.6304291    6.4707197 
C     0.4315250   -0.5971415    7.0967661 
C     1.0281508   -1.6418478    6.1360035 
C     2.1745112   -1.1365020    5.2431639 
O     1.7113526   -0.5794646    3.9973945 
C    -0.9072615    2.4116045    3.7234873 
C    -0.4023094    3.3848629    2.8557982 
C     0.3078166    3.0217271    1.7074358 
C     0.5217988    1.6604809    1.4071702 
C     2.1900282    2.6827656   -0.7862492 
C     1.4128567    3.7715737   -1.2397113 
C     2.0217957    4.9403458   -1.7163656 
C     1.2064089    6.1596273   -2.1902605 
C     1.5578131    6.4772686   -3.6663993 
C     1.5614860    7.3774445   -1.2984271 
C    -0.3142150    5.9122832   -2.0951670 
C     3.4360279    4.9756515   -1.7598436 
C     4.2357253    3.8988784   -1.3446758 
C     3.5861734    2.7471446   -0.8511353 
C     5.7763359    3.9461401   -1.3518294 
C     6.3150883    5.1319082   -2.1793389 
C     6.2559999    4.0964723    0.1166230 
C     6.3539424    2.6348392   -1.9431475 
C     2.6137714   -0.0309814    0.2051712 
C     3.5027183    0.2285164    1.2685276 
C     4.5780666   -0.6356662    1.5138713 
C     5.6254535   -0.3552171    2.6081863 
C     5.7837466   -1.5977450    3.5194055 
C     6.9809599   -0.0438562    1.9206856 
C     5.2277522    0.8502853    3.4862408 
C     4.7101577   -1.7763833    0.6880808 
C     3.8214213   -2.0760409   -0.3575270 
C     2.7662976   -1.1696421   -0.5956134 
C     3.9589020   -3.3373106   -1.2334446 
C     4.0205191   -2.9197569   -2.7232413 
C     2.7233065   -4.2433837   -1.0016847 
C     5.2288137   -4.1474394   -0.9010699 
H    -5.8072665    3.0622319   -0.5060922 
H    -6.4886656    3.2328916    1.1352478 
H    -5.9967812    4.6861417    0.2207935 
H    -3.3589219    3.6650826   -0.9627286 
H    -2.2694029    4.0871128    0.3940330 
H    -3.5429387    5.2253348   -0.1306051 
H    -4.4527172    5.4258583    2.1419696 
H    -4.9695369    4.0075487    3.0878808 
H    -3.2306935    4.2888902    2.7924553 
H    -2.4038457    1.8523984   -0.1627690 
H    -5.4911393    1.8827633    2.8541629 
H    -6.0222809   -0.3607663    5.7423690 
H    -5.9163987    1.1303351    4.7789146 
H    -4.4286225    0.3834398    5.4236361 
H    -7.1826381   -0.0019319    2.8413429 
H    -7.3342114   -1.4765497    3.8409900 
H    -6.6238528   -1.5718187    2.1998573 
H    -4.6458153   -2.7727837    3.2754428 
H    -3.6301950   -1.9367184    4.4862739 
H    -5.2647572   -2.5177786    4.9222884 
H    -3.1321144   -1.6714245    2.1908765 
H    -4.0139337   -2.3713409    0.1434702 
H    -6.9688319   -4.3684998    0.2576677 
H    -6.2838531   -2.9039779   -0.5058439 
H    -5.5545432   -3.5742535    0.9833482 
H    -5.6105771   -6.5388848    0.3337063 
H    -4.0827382   -6.6749856   -0.5861067 
H    -4.1419992   -5.6825893    0.8979586 
H    -5.3621360   -5.9328616   -2.6892530 
H    -6.1947360   -4.3537344   -2.7154509 
H    -6.8562901   -5.7080732   -1.7534125 
H    -3.3206063   -5.4926644   -2.7509246 
H    -0.4477631   -2.3075113   -2.2714524 
H     0.2089689   -6.4505948   -4.0819831 
H    -1.1974047   -6.6559137   -2.9996807 
H     0.2586112   -5.8044585   -2.4127209 
H    -2.6954082   -5.5501534   -4.8113840 
H    -2.2916963   -3.9172601   -5.4101500 
H    -1.2703834   -5.3159776   -5.8527642 
H     0.7629096   -4.1905858   -5.0662676 
H    -0.1502810   -2.7325866   -4.6025796 
H     0.9293305   -3.5362598   -3.4219926 
H    -0.5683983   -3.6281665    0.3559497 
H     0.9693525   -4.6588404    2.0144097 
H     2.0683329   -3.2724340    3.7493224 
H    -1.9954472   -0.5969158    5.9407000 
H    -2.2204177    1.1370339    5.6291097 
H     0.4621698    1.2179094    5.8670077 
H    -0.5802624    1.2958108    7.2916115 
H     1.2350943   -0.2381479    7.7681589 
H    -0.2990846   -1.1104679    7.7513923 
H     1.4157482   -2.4796935    6.7443105 
H     0.2438685   -2.0740134    5.4867382 
H     2.7245771   -0.3091814    5.7208334 
H     2.9077268   -1.9388762    5.0431764 
H    -1.4610013    2.7154490    4.6143005 
H    -0.5581156    4.4445146    3.0835508 
H     0.7140903    3.8006964    1.0591412 
H     0.3225185    3.6875006   -1.2169411 
H     0.9960913    7.3638207   -4.0102237 
H     2.6328175    6.6897566   -3.7951805 
H     1.2961871    5.6309398   -4.3261056 
H     0.9874626    8.2658385   -1.6169875 
H     2.6343057    7.6281215   -1.3611450 
H     1.3217401    7.1708886   -0.2404063 
H    -0.8590837    6.8054170   -2.4459862 
H    -0.6349961    5.7123132   -1.0576375 
H    -0.6315611    5.0621786   -2.7263314 
H     3.9198783    5.8791185   -2.1392671 
H     4.1789381    1.8916825   -0.5194503 
H     6.0152139    6.1049203   -1.7526515 
H     7.4182237    5.1060162   -2.1927561 
H     5.9620407    5.0871045   -3.2252383 
H     5.8701076    5.0292825    0.5635053 
H     7.3597969    4.1202214    0.1609439 
H     5.9061702    3.2520336    0.7365604 
H     7.4563125    2.6916385   -1.9727613 
H     5.9852250    2.4644419   -2.9686357 
H     6.0855349    1.7521225   -1.3375554 
H     3.3397437    1.1122623    1.8897309 
H     6.1326234   -2.4808545    2.9575229 
H     4.8231612   -1.8565109    3.9964745 
H     6.5224697   -1.3958933    4.3151127 
H     6.8915887    0.8371798    1.2609021 
H     7.7564778    0.1686920    2.6783094 
H     7.3274454   -0.8937682    1.3073671 
H     5.1905781    1.7864293    2.9014954 
H     5.9736838    0.9907971    4.2874129 
H     4.2402254    0.6984928    3.9546931 
H     5.5465640   -2.4535835    0.8767487 
H     2.0505341   -1.3418679   -1.4072577 
H     4.1202504   -3.8119010   -3.3670798 
H     3.1097313   -2.3814926   -3.0312958 
H     4.8808394   -2.2546028   -2.9116724 
H     1.7808249   -3.7060883   -1.2033293 
H     2.6866939   -4.5918576    0.0440382 
H     2.7657082   -5.1270603   -1.6636684 
H     6.1450680   -3.5513229   -1.0574939 
H     5.2226871   -4.5110699    0.1416285 
H     5.2872894   -5.0310105   -1.5599486 
