197
Energy =
C    -1.7021028    2.5795604    2.0551660 
C    -2.7968210    1.6653170    1.9289263 
C    -2.7128678    0.3775758    2.5079180 
H    -3.6252355    1.8985458    1.2485941 
Pd   -1.0243852    0.7336186    1.0234641 
P    -0.9626623   -1.3301688   -0.0473108 
P     1.1293706    1.2739213    0.3501751 
H    -1.1023090    2.5143770    2.9729366 
H    -1.9698479    0.2529913    3.3119179 
C    -1.4418500    6.4051057    0.0900302 
C    -2.2869447    5.4108863   -0.4308040 
C    -2.3729541    4.1596867    0.1880992 
C    -1.6256904    3.8766707    1.3562547 
C    -0.7747163    4.8844659    1.8635222 
C    -0.6847172    6.1334155    1.2388279 
H    -1.3755343    7.3827805   -0.3983108 
H    -2.8788899    5.6125974   -1.3294204 
H    -3.0206182    3.3911322   -0.2479498 
H    -0.1768386    4.6808090    2.7564762 
H    -0.0229334    6.8985717    1.6577608 
C    -5.4893453   -2.8933598    2.3259065 
C    -4.3064645   -2.9929199    3.0733754 
C    -3.4200061   -1.9132449    3.1212859 
C    -3.6921043   -0.7133411    2.4225463 
C    -4.8854192   -0.6319321    1.6687345 
C    -5.7722272   -1.7114305    1.6218856 
H    -6.1910485   -3.7328988    2.2943443 
H    -4.0755977   -3.9114975    3.6227613 
H    -2.4976458   -1.9956846    3.7047715 
H    -5.1249797    0.2813682    1.1170826 
H    -6.6893369   -1.6327476    1.0298532 
C     0.7319292   -1.7526115    4.9867610 
C     0.8355022   -3.2458230    4.6020669 
C    -0.2001260   -4.0514794    5.4289409 
C     2.2644698   -3.7333378    4.9479498 
C     0.5423294   -3.4710247    3.1060166 
C    -0.0151678   -2.4657246    2.2989552 
C     0.8085814   -4.7141685    2.4992588 
C     0.5714936   -4.9754420    1.1331869 
C     0.9499617   -6.3422611    0.5327464 
C     0.7060673   -6.3856612   -0.9906066 
C     2.4568442   -6.6055714    0.7878894 
C     0.0969796   -7.4459711    1.2079876 
C     0.0088578   -3.9477962    0.3584679 
C    -0.2975685   -2.7072761    0.9451959 
C    -2.6456002   -1.7465583   -0.6334934 
C    -3.3889142   -0.6866550   -1.1911720 
C    -4.6374336   -0.9229097   -1.7874713 
C    -5.4693853    0.2046047   -2.4296388 
C    -6.9230926    0.1593758   -1.8947996 
C    -5.4719676    0.0000719   -3.9668397 
C    -4.8899961    1.6014980   -2.1174798 
C    -5.1095410   -2.2519919   -1.8002138 
C    -4.4105522   -3.3237428   -1.2115715 
C    -3.1632723   -3.0484440   -0.6179249 
C    -4.9647352   -4.7599365   -1.2902808 
C    -6.4840108   -4.7824383   -0.9923358 
C    -4.2597567   -5.7002915   -0.2866510 
C    -4.7184701   -5.2845005   -2.7298189 
C     0.0400379   -1.3775515   -1.6010858 
C    -0.6004479   -1.4630544   -2.8519430 
C     0.1473404   -1.5138090   -4.0348142 
C     1.5424104   -1.5042679   -3.9799244 
C     1.4589936   -1.3502960   -1.5281530 
C     2.1869033   -1.4514836   -2.7349964 
C     2.2216218   -1.3038168   -0.2443593 
C     3.0504896   -2.4092808    0.0642134 
O     3.1275588   -3.4654952   -0.8242164 
C     4.3466329   -3.5053606   -1.5970700 
C     4.1488943   -2.7754922   -2.9246145 
O     3.5685661   -1.4751347   -2.6916693 
C     3.7820506   -2.4720867    1.2585209 
C     3.7592807   -1.3855009    2.1358611 
C     2.9965816   -0.2531034    1.8275024 
C     2.2142196   -0.2017835    0.6568061 
C     1.4176820    1.7356044   -1.3890392 
C     2.7306003    1.7285239   -1.9025742 
C     2.9721323    2.1185237   -3.2257144 
C     4.3867714    2.1293575   -3.8345056 
C     5.4527696    1.6645447   -2.8197174 
C     4.4218697    1.1658232   -5.0487270 
C     4.7300836    3.5703478   -4.2910285 
C     1.8613375    2.5081228   -4.0109039 
C     0.5419083    2.5163228   -3.5282417 
C     0.3351631    2.1203595   -2.1891817 
C    -0.6642944    2.9159065   -4.4020864 
C    -1.5395712    1.6602385   -4.6462971 
C    -0.2329602    3.4884539   -5.7680327 
C    -1.5041849    3.9870250   -3.6640612 
C     1.8482530    2.6246989    1.3611146 
C     2.4959469    3.7211112    0.7748961 
C     3.0101096    4.7633576    1.5701165 
C     3.7533659    5.9279483    0.8859461 
C     2.9059963    6.4898840   -0.2842323 
C     4.0558565    7.0800261    1.8665244 
C     5.0933390    5.3802072    0.3251813 
C     2.8628942    4.6644767    2.9677358 
C     2.2142764    3.5751374    3.5882969 
C     1.6913806    2.5683651    2.7590885 
C     2.0721904    3.4415108    5.1183787 
C     2.6227500    4.6742358    5.8649093 
C     2.8626120    2.1881858    5.5785784 
C     0.5780064    3.2696300    5.4937917 
H     0.9996088   -1.6205580    6.0490998 
H     1.4168751   -1.1328187    4.3809675 
H    -0.2937694   -1.3620819    4.8586144 
H    -0.0205501   -3.9184078    6.5109127 
H    -1.2285304   -3.7158256    5.2054053 
H    -0.1392065   -5.1299044    5.2012068 
H     2.4801063   -3.5493938    6.0151631 
H     3.0162782   -3.1985955    4.3429238 
H     2.3872604   -4.8147352    4.7679928 
H    -0.2126846   -1.4679438    2.6991977 
H     1.2415620   -5.5116014    3.1119070 
H     1.2953024   -5.6102146   -1.5107845 
H     1.0091886   -7.3701206   -1.3869650 
H    -0.3609717   -6.2432297   -1.2397180 
H     2.7552885   -7.5717626    0.3433546 
H     2.6895109   -6.6482365    1.8659891 
H     3.0625477   -5.8028435    0.3337485 
H    -0.9794607   -7.2711203    1.0321743 
H     0.3582312   -8.4375412    0.7971659 
H     0.2626124   -7.4780571    2.2990018 
H    -0.1612678   -4.0867236   -0.7114300 
H    -2.9664715    0.3234604   -1.1579344 
H    -7.5207920    0.9684567   -2.3500642 
H    -6.9442291    0.2936238   -0.7987473 
H    -7.4221131   -0.7954902   -2.1308329 
H    -4.4436775    0.0412971   -4.3673379 
H    -6.0683002    0.7883337   -4.4603365 
H    -5.9056856   -0.9774353   -4.2401204 
H    -5.5309869    2.3797563   -2.5656588 
H    -3.8750515    1.7340179   -2.5290684 
H    -4.8512671    1.7869616   -1.0288007 
H    -6.0702162   -2.4580591   -2.2815877 
H    -2.5850816   -3.8466824   -0.1491459 
H    -6.8575342   -5.8208045   -1.0221835 
H    -6.6977616   -4.3670304    0.0068920 
H    -7.0627348   -4.2058323   -1.7337720 
H    -4.3429298   -5.3205766    0.7468449 
H    -4.7250848   -6.7001420   -0.3248524 
H    -3.1882074   -5.8293885   -0.5208053 
H    -5.2286398   -4.6506854   -3.4763660 
H    -5.1005067   -6.3158816   -2.8351439 
H    -3.6395470   -5.2880869   -2.9656269 
H    -1.6909397   -1.5013701   -2.9052900 
H    -0.3644192   -1.5720730   -5.0005343 
H     2.1484653   -1.5483078   -4.8896241 
H     4.5865892   -4.5681477   -1.7733463 
H     5.1663192   -3.0448680   -1.0162769 
H     3.4925985   -3.3578216   -3.5966096 
H     5.1195920   -2.6146134   -3.4241826 
H     4.3722386   -3.3680015    1.4721655 
H     4.3480407   -1.4086216    3.0584833 
H     3.0268287    0.6049928    2.5023063 
H     3.5498878    1.3997144   -1.2590272 
H     5.4977493    2.3313109   -1.9398928 
H     6.4480264    1.6777360   -3.2967766 
H     5.2524338    0.6357947   -2.4737063 
H     5.4253436    1.1714929   -5.5105980 
H     3.6928600    1.4564884   -5.8250414 
H     4.1925008    0.1375502   -4.7209653 
H     4.7000980    4.2689627   -3.4357834 
H     5.7444522    3.6013342   -4.7270741 
H     4.0237844    3.9377686   -5.0556007 
H     2.0444224    2.8100482   -5.0450389 
H    -0.6722776    2.1019339   -1.7584974 
H    -2.4491377    1.9290692   -5.2131284 
H    -0.9819542    0.9022842   -5.2213382 
H    -1.8509012    1.1937787   -3.6956826 
H     0.3201035    2.7460355   -6.3697657 
H    -1.1264479    3.7818089   -6.3458506 
H     0.4017944    4.3843215   -5.6504879 
H    -1.9082892    3.6032029   -2.7134481 
H    -2.3584975    4.2995412   -4.2909327 
H    -0.8967192    4.8791628   -3.4331100 
H     2.5972393    3.7654125   -0.3121496 
H     1.9266261    6.8510208    0.0718721 
H     3.4366186    7.3336013   -0.7595343 
H     2.7223596    5.7316408   -1.0649916 
H     3.1302980    7.4833838    2.3148925 
H     4.5573189    7.9033118    1.3294914 
H     4.7280133    6.7623617    2.6827232 
H     4.9189617    4.5747843   -0.4104568 
H     5.6565663    6.1864430   -0.1781851 
H     5.7220061    4.9720121    1.1357514 
H     3.2644091    5.4610175    3.5948915 
H     1.1520978    1.7225938    3.2016924 
H     2.0896482    5.5970545    5.5757084 
H     3.7003760    4.8202961    5.6748824 
H     2.4928510    4.5388290    6.9523984 
H     3.9303127    2.2786930    5.3126754 
H     2.7876938    2.0670831    6.6740513 
H     2.4698936    1.2678527    5.1104395 
H     0.1448588    2.3569347    5.0469997 
H     0.4673058    3.1835455    6.5891200 
H    -0.0192333    4.1350070    5.1568850 
