206
Energy =
C    -0.7625177   -3.6227449    0.8377362 
C    -2.0966528   -3.2282302    0.5831010 
C    -2.4724175   -2.8016589   -0.7316424 
H    -2.7896494   -3.0869810    1.4217903 
Pd   -0.8622588   -1.4946120    0.0458422 
P    -0.7222257    0.1208603   -1.6325357 
P     0.6473550   -0.4451676    1.4649650 
H    -0.1630197   -3.9073504   -0.0419242 
H    -1.9638802   -3.2799225   -1.5791599 
C     1.1082234   -4.7729276    4.5269834 
C     1.8369329   -4.7397506    3.3286647 
C     1.2035915   -4.3687351    2.1393598 
C    -0.1664718   -4.0157434    2.1206477 
C    -0.8847398   -4.0474099    3.3378368 
C    -0.2518428   -4.4223359    4.5266458 
H     1.5976228   -5.0749614    5.4584138 
H     2.8988756   -5.0065849    3.3194247 
H     1.7752992   -4.3426290    1.2065501 
H    -1.9456374   -3.7834144    3.3566299 
H    -0.8220210   -4.4389134    5.4607171 
C    -6.2506689   -0.9898600   -1.7230911 
C    -5.7539321   -0.8948913   -0.4116683 
C    -4.5294665   -1.4809482   -0.0784395 
C    -3.7702861   -2.1780613   -1.0488113 
C    -4.2741993   -2.2529451   -2.3660643 
C    -5.5052816   -1.6724205   -2.6954320 
H    -7.2114460   -0.5336095   -1.9828804 
H    -6.3255382   -0.3591013    0.3536528 
H    -4.1465303   -1.3814286    0.9426175 
H    -3.6909307   -2.7710332   -3.1351596 
H    -5.8851194   -1.7563062   -3.7185525 
C     1.7994275   -0.0094868    7.4611282 
C     1.7314689   -1.3637148    6.7063895 
C     3.1421378   -1.7153357    6.1859101 
C     1.2846435   -2.4730215    7.6902099 
C     0.7192910   -1.2113948    5.5536643 
C     1.1352589   -1.0473854    4.2184679 
C    -0.6617292   -1.1652335    5.8229658 
C    -1.6367469   -1.0007265    4.8188831 
C    -3.1341503   -0.9831523    5.1849939 
C    -3.4619887   -2.1288202    6.1746780 
C    -3.4563762    0.3835909    5.8434047 
C    -4.0320096   -1.1601533    3.9420955 
C    -1.1846323   -0.8243620    3.5004244 
C     0.1939923   -0.8221880    3.2033703 
C     2.4029717   -0.8655853    1.1982461 
C     3.4414719   -0.2531082    1.9216807 
C     4.7727716   -0.6678235    1.7344960 
C     5.9329252   -0.1072744    2.5814008 
C     5.4961540    1.1187648    3.4116493 
C     7.1158213    0.3144768    1.6750632 
C     6.4055602   -1.2249933    3.5487821 
C     5.0203324   -1.6693483    0.7730718 
C     4.0061323   -2.2565409   -0.0099988 
C     2.6870323   -1.8425689    0.2290812 
C     4.3496565   -3.3293336   -1.0611077 
C     3.1181291   -3.7092865   -1.9124041 
C     5.4480128   -2.7945746   -2.0143184 
C     4.8653472   -4.5965218   -0.3317152 
C     0.5351426    1.3920206    1.3719763 
C    -0.0763555    2.1284421    2.4065492 
C    -0.1935035    3.5175762    2.2943462 
C     0.3091817    4.1896748    1.1755632 
C     1.0263981    2.0476012    0.2184552 
C     0.9314628    3.4621997    0.1450310 
C     1.7213479    1.3500847   -0.9075793 
C     3.1145957    1.5858084   -1.0469344 
O     3.6798928    2.3465295   -0.0666643 
C     4.9499235    2.9741579   -0.3217726 
C     4.8408796    4.1402729   -1.3167069 
C     4.4804551    5.4985658   -0.6885520 
C     3.1158488    5.6110158    0.0158431 
C     1.8925729    5.4121994   -0.8960898 
O     1.4672031    4.0370603   -0.9703586 
C     3.8292060    1.0399716   -2.1283717 
C     3.1548285    0.2729174   -3.0835055 
C     1.7825562    0.0279275   -2.9682508 
C     1.0607554    0.5555830   -1.8782984 
C    -1.6077289    1.7048969   -1.4553362 
C    -1.4202026    2.7288045   -2.3974668 
C    -2.1870594    3.9092932   -2.3291971 
C    -2.0285883    4.9873561   -3.4214474 
C    -3.0171538    6.1574392   -3.2362452 
C    -2.2900480    4.3484997   -4.8095784 
C    -0.5877463    5.5519569   -3.3766660 
C    -3.0870799    4.0379122   -1.2560124 
C    -3.2610816    3.0430714   -0.2681146 
C    -2.5203630    1.8584401   -0.3961552 
C    -4.2679736    3.2674129    0.8757601 
C    -4.1874420    2.1452317    1.9312123 
C    -3.9741474    4.6167472    1.5778818 
C    -5.6994560    3.2877502    0.2794368 
C    -1.2826152   -0.6207243   -3.2168490 
C    -0.7701337   -1.8884499   -3.5486994 
C    -1.1860461   -2.5603448   -4.7111231 
C    -0.5687001   -3.9306477   -5.0542525 
C    -1.2604133   -4.5954353   -6.2624427 
C     0.9311108   -3.7225233   -5.3905677 
C    -0.6966804   -4.8806577   -3.8356823 
C    -2.1520335   -1.9281653   -5.5190108 
C    -2.7089391   -0.6725118   -5.1997832 
C    -2.2580503   -0.0250335   -4.0335430 
C    -3.7376411   -0.0011590   -6.1319957 
C    -4.6362783    0.9935678   -5.3609979 
C    -4.6504886   -1.0500853   -6.8107467 
C    -2.9509189    0.7714197   -7.2244551 
H     2.1232975    0.8002744    6.7836376 
H     0.8130572    0.2661217    7.8737226 
H     2.5175697   -0.0704033    8.2986442 
H     3.5673291   -0.9015243    5.5734987 
H     3.1308386   -2.6358078    5.5759352 
H     3.8256654   -1.8750027    7.0373664 
H     2.0303947   -2.5832050    8.4968698 
H     0.3175590   -2.2412284    8.1677396 
H     1.1876452   -3.4430610    7.1747500 
H     2.1950110   -1.0902653    3.9638204 
H    -0.9942234   -1.2749165    6.8592323 
H    -4.5420757   -2.1326258    6.4031092 
H    -2.9239950   -2.0217568    7.1314577 
H    -3.1992946   -3.1109777    5.7426462 
H    -2.8449932    0.5419837    6.7487462 
H    -4.5212638    0.4327277    6.1340693 
H    -3.2499197    1.2118619    5.1424427 
H    -3.9085554   -0.3357910    3.2216820 
H    -3.8174186   -2.1119010    3.4237162 
H    -5.0928937   -1.1762272    4.2447443 
H    -1.8975710   -0.6784524    2.6812729 
H     3.2006325    0.5502120    2.6212421 
H     6.3613512    1.5230495    3.9645926 
H     4.7233442    0.8577681    4.1558758 
H     5.0947343    1.9202193    2.7668005 
H     7.9410073    0.7131433    2.2911195 
H     7.5171085   -0.5335605    1.0945633 
H     6.8077413    1.0990454    0.9639179 
H     6.7667726   -2.1082722    2.9934231 
H     5.5801029   -1.5504760    4.2051637 
H     7.2319393   -0.8598210    4.1847067 
H     6.0525351   -2.0025400    0.6236280 
H     1.8535245   -2.2554274   -0.3456609 
H     3.4072841   -4.4416989   -2.6853706 
H     2.6953469   -2.8247418   -2.4202571 
H     2.3209953   -4.1736737   -1.3038862 
H     5.1057949   -1.8782289   -2.5247526 
H     6.3804492   -2.5575020   -1.4742095 
H     5.6898736   -3.5522920   -2.7805068 
H     5.1243928   -5.3838194   -1.0620008 
H     5.7665651   -4.3774170    0.2667748 
H     4.0953347   -4.9990293    0.3504174 
H    -0.4440135    1.6217110    3.3020128 
H    -0.6672074    4.0890872    3.0992241 
H     0.2230683    5.2767787    1.1133864 
H     5.6780136    2.2174039   -0.6654673 
H     5.2851187    3.3213345    0.6691664 
H     5.8164778    4.2463644   -1.8261161 
H     4.1137994    3.8624811   -2.1028820 
H     5.2686834    5.7666205    0.0412089 
H     4.5305844    6.2698347   -1.4811399 
H     3.0455357    4.8981419    0.8585730 
H     3.0472494    6.6195835    0.4632961 
H     1.0473968    6.0481234   -0.5758920 
H     2.1206563    5.6802214   -1.9400512 
H     4.9014107    1.2169517   -2.2363534 
H     3.7072003   -0.1336219   -3.9371119 
H     1.2729285   -0.5546722   -3.7389161 
H    -0.6811598    2.5936567   -3.1942746 
H    -2.8756374    6.8938568   -4.0460899 
H    -4.0664722    5.8155048   -3.2741010 
H    -2.8561086    6.6826803   -2.2782627 
H    -2.1668321    5.1036043   -5.6060965 
H    -3.3185450    3.9529561   -4.8697739 
H    -1.5918724    3.5202407   -5.0209781 
H    -0.4320216    6.2706464   -4.2011616 
H     0.1683333    4.7535005   -3.4636147 
H    -0.4157872    6.0800280   -2.4241517 
H    -3.6852825    4.9489592   -1.1789089 
H    -2.6296285    1.0396164    0.3198419 
H    -3.1732889    2.0682902    2.3621625 
H    -4.8930204    2.3504378    2.7549309 
H    -4.4569311    1.1671234    1.4987010 
H    -2.9480109    4.6282232    1.9837989 
H    -4.6813637    4.7733433    2.4117076 
H    -4.0786913    5.4718854    0.8885161 
H    -6.4476565    3.4387604    1.0785007 
H    -5.9209178    2.3347728   -0.2323923 
H    -5.8177414    4.1033575   -0.4550457 
H    -0.0386803   -2.3581552   -2.8800198 
H    -1.1494733   -3.9927979   -7.1806582 
H    -2.3375932   -4.7540035   -6.0777272 
H    -0.8030816   -5.5807915   -6.4569327 
H     1.4757993   -3.2767757   -4.5402451 
H     1.4101276   -4.6884456   -5.6317184 
H     1.0470149   -3.0518981   -6.2597911 
H    -0.1484535   -4.4989393   -2.9558411 
H    -0.2763143   -5.8722426   -4.0790239 
H    -1.7549877   -5.0171811   -3.5506309 
H    -2.4910878   -2.4334898   -6.4246717 
H    -2.6754806    0.9417825   -3.7473336 
H    -5.4002405    1.4083204   -6.0411449 
H    -5.1511486    0.5021035   -4.5180717 
H    -4.0616305    1.8439376   -4.9589268 
H    -5.1659036   -1.6771456   -6.0620837 
H    -4.0912579   -1.7166313   -7.4891513 
H    -5.4179095   -0.5396455   -7.4179846 
H    -2.3043537    1.5422651   -6.7696175 
H    -2.3093031    0.0874244   -7.8072774 
H    -3.6478675    1.2710098   -7.9214115 
