197
Energy =
C    -0.4490995   -3.2762696    1.6853769 
C    -0.4257148   -3.7448957    0.3324023 
C     0.7525747   -3.6174839   -0.4394134 
H    -1.3611239   -4.0486745   -0.1540945 
Pd    0.0259055   -1.5948856    0.3161037 
P     0.3835629   -0.2924486   -1.5784565 
P    -0.0381370    0.2560886    1.7145132 
H     0.4920082   -3.3376057    2.2491471 
H     1.6905015   -3.4836150    0.1229824 
C    -3.9582900   -3.1174901    4.1800172 
C    -2.6758532   -3.1653397    4.7452464 
C    -1.5448632   -3.2129810    3.9226999 
C    -1.6674826   -3.2151316    2.5152857 
C    -2.9670608   -3.1531477    1.9584116 
C    -4.0968090   -3.1130733    2.7818705 
H    -4.8449671   -3.0828007    4.8213699 
H    -2.5511295   -3.1711317    5.8330985 
H    -0.5489497   -3.2466950    4.3729117 
H    -3.0960228   -3.1238091    0.8707534 
H    -5.0940019   -3.0725536    2.3319086 
C     1.4431656   -4.5906605   -4.5643199 
C     2.4799367   -4.1013052   -3.7559809 
C     2.2322424   -3.7959543   -2.4146446 
C     0.9454898   -3.9682800   -1.8521118 
C    -0.0895950   -4.4567962   -2.6820122 
C     0.1586811   -4.7631806   -4.0230154 
H     1.6356697   -4.8402757   -5.6125560 
H     3.4838546   -3.9605585   -4.1698359 
H     3.0436726   -3.4132697   -1.7877885 
H    -1.0952958   -4.6014680   -2.2776299 
H    -0.6552967   -5.1361096   -4.6523635 
C    -5.4950559   -0.2205114    1.0717064 
C    -5.1513183    1.1664001    0.4749621 
C    -6.3443581    2.1130414    0.7200254 
C    -4.9373995    1.0257721   -1.0537450 
C    -3.8478837    1.6912194    1.1105396 
C    -2.6953954    0.8760694    1.1165798 
C    -3.7403692    2.9717612    1.6785113 
C    -2.5419686    3.4731086    2.2393820 
C    -2.5052874    4.8931784    2.8345843 
C    -2.8627056    5.9159338    1.7254549 
C    -1.1084102    5.2496258    3.3858094 
C    -3.5336989    4.9840451    3.9908354 
C    -1.4169285    2.6393305    2.2252313 
C    -1.4986904    1.3457021    1.6707160 
C     0.2030325   -0.1914950    3.4772561 
C     1.2222092   -1.1143244    3.8009457 
C     1.4410751   -1.5060056    5.1284855 
C     2.5611279   -2.4886793    5.5231635 
C     1.9446426   -3.7174530    6.2400211 
C     3.3521209   -2.9895407    4.2958315 
C     3.5454535   -1.7687899    6.4808176 
C     0.5872480   -0.9701979    6.1226604 
C    -0.4515349   -0.0726114    5.8288838 
C    -0.6295123    0.3119418    4.4824292 
C    -1.3719319    0.5368996    6.9043644 
C    -1.0836741    2.0598577    6.9861635 
C    -1.1361170   -0.0891687    8.2941206 
C    -2.8559699    0.3193037    6.5119810 
C     1.4011349    1.3433715    1.2728200 
C     2.5842036    1.2614004    2.0335649 
C     3.7203389    1.9991345    1.6814744 
C     3.6802742    2.8607700    0.5828144 
C     1.3466877    2.2110511    0.1452082 
C     2.4917285    2.9900627   -0.1494181 
C     0.1426502    2.4012103   -0.7187783 
C    -0.4440499    3.6852603   -0.7770769 
O     0.0894051    4.7080177   -0.0150505 
C     0.8519246    5.6755942   -0.7662316 
C     2.3243380    5.2694324   -0.7975527 
O     2.4469410    3.8880485   -1.1993464 
C    -1.5721832    3.9426854   -1.5704172 
C    -2.1027316    2.9259428   -2.3667033 
C    -1.5130959    1.6558114   -2.3653045 
C    -0.3994984    1.3827758   -1.5483665 
C     2.1308064    0.0530081   -1.9692189 
C     2.4853066    1.0056936   -2.9406952 
C     3.8377189    1.2957824   -3.1851320 
C     4.2767803    2.3502846   -4.2183664 
C     5.0900170    1.6536038   -5.3386252 
C     5.1535948    3.4160629   -3.5109815 
C     3.0669845    3.0684957   -4.8529310 
C     4.8057493    0.6006076   -2.4299792 
C     4.4792188   -0.3341546   -1.4279228 
C     3.1165495   -0.5942729   -1.2075367 
C     5.5854726   -1.0501689   -0.6288147 
C     6.6184041   -0.0218995   -0.1041070 
C     6.2927487   -2.0596886   -1.5698464 
C     5.0100936   -1.8141747    0.5848306 
C    -0.4259423   -1.0945790   -3.0107890 
C    -1.6948708   -1.6595128   -2.7709315 
C    -2.4577098   -2.1827840   -3.8266687 
C    -3.8577933   -2.7899543   -3.6100255 
C    -3.9356638   -4.1876114   -4.2749215 
C    -4.9087322   -1.8474286   -4.2519373 
C    -4.1914441   -2.9555369   -2.1115072 
C    -1.9025786   -2.1197312   -5.1216732 
C    -0.6201815   -1.6008199   -5.3862111 
C     0.1191264   -1.0899731   -4.3015896 
C    -0.0868122   -1.5277747   -6.8305139 
C    -0.3808912   -2.8424372   -7.5939157 
C    -0.8064422   -0.3515275   -7.5423822 
C     1.4377397   -1.2772982   -6.8650174 
H    -6.4401349   -0.5965459    0.6409367 
H    -4.7093602   -0.9625193    0.8553404 
H    -5.6093397   -0.1642465    2.1680922 
H    -7.2561061    1.6847757    0.2689422 
H    -6.5358012    2.2540867    1.7983324 
H    -6.1839598    3.1047243    0.2617909 
H    -5.8328984    0.5864927   -1.5291083 
H    -4.0729250    0.3789190   -1.2829377 
H    -4.7465638    2.0101800   -1.5128701 
H    -2.7177718   -0.1304719    0.6840260 
H    -4.6202573    3.6198013    1.6840294 
H    -2.8587449    6.9411276    2.1370848 
H    -2.1209124    5.8626290    0.9105415 
H    -3.8639925    5.7282711    1.3003231 
H    -1.1225463    6.2753370    3.7932899 
H    -0.3434623    5.2070058    2.5914252 
H    -0.8066736    4.5716547    4.2042591 
H    -4.5618453    4.7841324    3.6424654 
H    -3.5195075    5.9949625    4.4357739 
H    -3.2949140    4.2539679    4.7848565 
H    -0.4615932    2.9844912    2.6272303 
H     1.8376599   -1.5256042    2.9955877 
H     1.3883081   -3.4262009    7.1471854 
H     2.7403767   -4.4199989    6.5447666 
H     1.2498311   -4.2574789    5.5725307 
H     3.8469674   -2.1618084    3.7574411 
H     2.7026220   -3.5290590    3.5824485 
H     4.1386168   -3.6914471    4.6217903 
H     4.3593647   -2.4535431    6.7787360 
H     3.9955385   -0.8880224    5.9897569 
H     3.0401881   -1.4246034    7.3994562 
H     0.7448831   -1.2761920    7.1598017 
H    -1.4292681    1.0084357    4.2186141 
H    -0.0309649    2.2470184    7.2612380 
H    -1.7303165    2.5313845    7.7477024 
H    -1.2779253    2.5584095    6.0198929 
H    -1.3172329   -1.1788408    8.2841082 
H    -0.1090277    0.0901037    8.6578307 
H    -1.8286387    0.3597885    9.0266390 
H    -3.1045371    0.8016743    5.5507435 
H    -3.0873511   -0.7551077    6.4190492 
H    -3.5164853    0.7525236    7.2837568 
H     2.6182573    0.6268333    2.9218755 
H     4.6333808    1.9089513    2.2786178 
H     4.5517950    3.4523422    0.2874575 
H     0.4455755    5.7509871   -1.7912354 
H     0.7310822    6.6491876   -0.2611108 
H     2.7888596    5.4070308    0.1956097 
H     2.8759714    5.8749112   -1.5373549 
H    -2.0120585    4.9442301   -1.5581870 
H    -2.9726862    3.1219848   -3.0012766 
H    -1.9179226    0.8759481   -3.0143289 
H     1.6961271    1.5417903   -3.4724940 
H     4.4755526    0.8935801   -5.8533984 
H     5.9871621    1.1508112   -4.9372495 
H     5.4237999    2.3940582   -6.0873831 
H     4.5853163    3.8891866   -2.6921014 
H     6.0726779    2.9762582   -3.0865486 
H     5.4587152    4.1966328   -4.2306262 
H     2.4190464    2.3677699   -5.4097799 
H     3.4213831    3.8302152   -5.5686986 
H     2.4574938    3.5763139   -4.0850034 
H     5.8627028    0.8157119   -2.6176005 
H     2.7949728   -1.2816258   -0.4209249 
H     7.3973436   -0.5345200    0.4874047 
H     7.1252564    0.5110454   -0.9261765 
H     6.1293415    0.7288386    0.5398083 
H     5.5766362   -2.8090722   -1.9519637 
H     7.0968327   -2.5930923   -1.0318401 
H     6.7422761   -1.5475253   -2.4383147 
H     5.8313889   -2.2699885    1.1640436 
H     4.4498907   -1.1393318    1.2561886 
H     4.3356772   -2.6334665    0.2771835 
H    -2.0763313   -1.6728880   -1.7441155 
H    -3.7591469   -4.1392284   -5.3626212 
H    -4.9365165   -4.6271880   -4.1195639 
H    -3.1888978   -4.8742183   -3.8382521 
H    -4.7283736   -1.7235282   -5.3338220 
H    -5.9263365   -2.2571118   -4.1205426 
H    -4.8741416   -0.8480367   -3.7834708 
H    -3.4584940   -3.6100208   -1.6058940 
H    -5.1858303   -3.4203541   -1.9996610 
H    -4.2186728   -1.9887713   -1.5808510 
H    -2.4931660   -2.5024214   -5.9595330 
H     1.1177258   -0.6778649   -4.4571455 
H     0.0339214   -2.7849620   -8.6153135 
H    -1.4629285   -3.0347564   -7.6910373 
H     0.0759706   -3.7070973   -7.0837015 
H    -0.6058331    0.6019096   -7.0224145 
H    -0.4550505   -0.2589652   -8.5858443 
H    -1.8995967   -0.5066192   -7.5599943 
H     1.7935956   -1.2958914   -7.9093852 
H     1.9854701   -2.0521697   -6.3004219 
H     1.7058972   -0.2914111   -6.4457249 
