197
Energy =
C    -1.3670823   -3.2628773    1.7292339 
C    -2.1118448   -3.3524659    0.5306401 
C    -1.4724785   -3.5776345   -0.7278308 
H    -3.1772943   -3.0888343    0.5448102 
Pd   -0.6901101   -1.7124329    0.1981247 
P     0.0328990   -0.5037908   -1.6397964 
P    -0.3382183    0.1494863    1.5896467 
H    -0.3764465   -3.7444080    1.7390808 
H    -0.5558649   -4.1861779   -0.7317359 
C    -2.8763099   -2.4388930    5.6704987 
C    -1.6318368   -3.0596523    5.4911154 
C    -1.1605002   -3.3181257    4.1999505 
C    -1.9156469   -2.9595488    3.0612700 
C    -3.1627972   -2.3233995    3.2595033 
C    -3.6366651   -2.0677031    4.5488670 
H    -3.2556955   -2.2445274    6.6787534 
H    -1.0247913   -3.3429952    6.3568600 
H    -0.1925312   -3.8087624    4.0626172 
H    -3.7658004   -2.0163487    2.4009234 
H    -4.6041666   -1.5729727    4.6823974 
C    -3.5316350   -3.3232539   -4.5025969 
C    -3.9907554   -2.5804607   -3.4016533 
C    -3.3289948   -2.6633757   -2.1731703 
C    -2.1973000   -3.4966989   -2.0115414 
C    -1.7496934   -4.2356293   -3.1269667 
C    -2.4070649   -4.1476224   -4.3603287 
H    -4.0488872   -3.2578084   -5.4650803 
H    -4.8647765   -1.9280662   -3.5044783 
H    -3.6779092   -2.0549096   -1.3334021 
H    -0.8740972   -4.8841744   -3.0229116 
H    -2.0346865   -4.7214594   -5.2146435 
C    -1.5149049    5.0518457    3.4250050 
C    -2.9579536    4.5682379    3.1678658 
C    -3.6343903    5.5664068    2.1931542 
C    -3.7257612    4.5392688    4.5140550 
C    -2.9856613    3.1583495    2.5492877 
C    -1.8213315    2.3942141    2.3792541 
C    -4.2042628    2.5947888    2.1204931 
C    -4.2960044    1.3344643    1.4993337 
C    -5.6687363    0.7982108    1.0467441 
C    -6.4786305    0.4028622    2.3085483 
C    -5.5297323   -0.4374487    0.1331411 
C    -6.4400798    1.8871907    0.2593666 
C    -3.1076343    0.5977687    1.3414533 
C    -1.8847789    1.1129774    1.7999472 
C     0.2696770   -0.3044262    3.2588448 
C     1.2564010   -1.3097851    3.3390624 
C     1.8259670   -1.6550381    4.5742853 
C     2.9096426   -2.7429705    4.7133898 
C     3.1191139   -3.5238822    3.3983801 
C     4.2455630   -2.0594179    5.1059885 
C     2.5083544   -3.7554082    5.8166841 
C     1.3828098   -0.9556684    5.7202757 
C     0.3921277    0.0392279    5.6732191 
C    -0.1695678    0.3467698    4.4169229 
C    -0.0502709    0.8423114    6.9121091 
C    -1.5958458    0.8720397    7.0103271 
C     0.4791835    2.2929977    6.7551750 
C     0.5092659    0.2471015    8.2209139 
C     0.8429917    1.4723494    1.0497100 
C     2.0201062    1.6914312    1.7874623 
C     2.9110438    2.7100537    1.4251782 
C     2.6251661    3.5323832    0.3334328 
C     0.5454452    2.2907294   -0.0766759 
C     1.4439311    3.3307578   -0.3968360 
C    -0.7066878    2.1456413   -0.8778617 
C    -1.6278499    3.2230398   -0.8852394 
O    -1.3017627    4.4019621   -0.2431303 
C    -0.8312490    5.4549394   -1.1129979 
C     0.6940232    5.4549588   -1.1620954 
O     1.1764771    4.1356986   -1.4878387 
C    -2.8868316    3.1071986   -1.4901389 
C    -3.2415523    1.9178500   -2.1367962 
C    -2.3298623    0.8594506   -2.1991130 
C    -1.0558423    0.9738733   -1.6019183 
C     1.7751155    0.0678572   -1.6652359 
C     2.1501284    1.0111984   -2.6411710 
C     3.4938922    1.3650888   -2.8025401 
C     3.9460274    2.4133736   -3.8366805 
C     2.7608580    2.9484199   -4.6686967 
C     4.9780125    1.7731581   -4.7991760 
C     4.5906980    3.6085307   -3.0884257 
C     4.4483918    0.7210965   -1.9785282 
C     4.1030159   -0.2326508   -1.0076761 
C     2.7338291   -0.5427094   -0.8524686 
C     5.1453999   -0.9424431   -0.1215426 
C     4.9643095   -2.4773172   -0.2488558 
C     4.9270433   -0.5129141    1.3509575 
C     6.5926462   -0.5912192   -0.5238568 
C    -0.0011334   -1.2357684   -3.3241037 
C     0.7917108   -2.3957332   -3.4514701 
C     1.0632699   -2.9445281   -4.7095855 
C     1.9950321   -4.1575521   -4.8957235 
C     2.5044090   -4.7100227   -3.5473802 
C     3.2221160   -3.7085952   -5.7324118 
C     1.2461493   -5.2914531   -5.6403268 
C     0.4800359   -2.3214326   -5.8374170 
C    -0.3214153   -1.1732311   -5.7418068 
C    -0.5434679   -0.6256988   -4.4589014 
C    -0.9156372   -0.4593181   -6.9715797 
C    -0.6507943   -1.2328966   -8.2797057 
C    -2.4480696   -0.3104799   -6.7935677 
C    -0.2679883    0.9458867   -7.0888402 
H    -1.5346805    6.0753273    3.8373643 
H    -0.9909389    4.4118935    4.1573313 
H    -0.9286216    5.0677009    2.4897363 
H    -3.5956164    6.5890490    2.6087844 
H    -3.1130978    5.5568395    1.2208293 
H    -4.6958399    5.3181007    2.0201484 
H    -3.7278820    5.5422310    4.9769834 
H    -3.2519433    3.8335135    5.2197323 
H    -4.7758268    4.2275963    4.3752985 
H    -0.8484992    2.8007847    2.6635452 
H    -5.1211980    3.1764285    2.2576615 
H    -7.4759914    0.0208869    2.0257902 
H    -5.9550437   -0.3850235    2.8780796 
H    -6.6192952    1.2685797    2.9786297 
H    -6.5255323   -0.7678155   -0.2083345 
H    -5.0677024   -1.2912947    0.6592366 
H    -4.9196250   -0.2061869   -0.7570153 
H    -6.6568155    2.7727031    0.8800084 
H    -7.4070381    1.4866726   -0.0924494 
H    -5.8609666    2.2200230   -0.6191610 
H    -3.1066415   -0.3718508    0.8357800 
H     1.5597603   -1.8225050    2.4207713 
H     2.1870168   -4.0148559    3.0636158 
H     3.8756712   -4.3127115    3.5499068 
H     3.4804108   -2.8740577    2.5841548 
H     4.1541313   -1.5232653    6.0664823 
H     4.5527839   -1.3304238    4.3366372 
H     5.0470705   -2.8124871    5.2112691 
H     3.2860580   -4.5328338    5.9168869 
H     2.3942423   -3.2714381    6.8012471 
H     1.5556911   -4.2565542    5.5710723 
H     1.8300763   -1.2083975    6.6844396 
H    -0.9511225    1.1064662    4.3431421 
H    -2.0603166    1.3399874    6.1250651 
H    -1.9049522    1.4547940    7.8958747 
H    -2.0029326   -0.1480129    7.1050659 
H     1.5806077    2.3037896    6.6786722 
H     0.0700094    2.7721211    5.8480173 
H     0.1856925    2.9052560    7.6266503 
H     0.1840760   -0.7993334    8.3604581 
H     1.6125859    0.2760187    8.2492023 
H     0.1428599    0.8321599    9.0817945 
H     2.2393310    1.0699204    2.6590642 
H     3.8275930    2.8637165    2.0034745 
H     3.3061168    4.3336852    0.0324013 
H    -1.2547896    5.3132936   -2.1237988 
H    -1.2027538    6.4088098   -0.6996719 
H     1.1156671    5.7755036   -0.1919048 
H     1.0526263    6.1380525   -1.9511648 
H    -3.5780218    3.9529348   -1.4314089 
H    -4.2288256    1.8161182   -2.5985656 
H    -2.6088598   -0.0685597   -2.7067022 
H     1.3763601    1.4641057   -3.2657527 
H     2.0094820    3.4390623   -4.0256781 
H     2.2656745    2.1425085   -5.2389575 
H     3.1264553    3.6953891   -5.3945203 
H     5.8781032    1.4234939   -4.2645602 
H     4.5364622    0.9086603   -5.3259405 
H     5.3025400    2.5105771   -5.5548032 
H     3.8464712    4.0891851   -2.4307463 
H     4.9540565    4.3608868   -3.8112255 
H     5.4484282    3.2903168   -2.4705363 
H     5.5016227    0.9804449   -2.1109341 
H     2.4069722   -1.2696463   -0.0997266 
H     5.7040142   -3.0034996    0.3804383 
H     3.9602249   -2.8025846    0.0741615 
H     5.1056189   -2.8026646   -1.2945816 
H     5.0918587    0.5716367    1.4685862 
H     5.6304572   -1.0458653    2.0154097 
H     3.9007354   -0.7322655    1.6912333 
H     7.3007823   -1.1378573    0.1226334 
H     6.8041137   -0.8742722   -1.5699787 
H     6.8005170    0.4866787   -0.4058709 
H     1.2205995   -2.8386929   -2.5474290 
H     3.0889305   -3.9564652   -2.9899936 
H     3.1620112   -5.5779966   -3.7258964 
H     1.6730766   -5.0501014   -2.9033906 
H     3.7625058   -2.8913320   -5.2228439 
H     3.9198229   -4.5534953   -5.8732880 
H     2.9222954   -3.3475931   -6.7312880 
H     0.3819301   -5.6473672   -5.0526922 
H     1.9213703   -6.1492754   -5.8069301 
H     0.8754327   -4.9603438   -6.6254010 
H     0.6786314   -2.7464085   -6.8242877 
H    -1.1155463    0.3002309   -4.3607718 
H    -1.1113584   -0.6972654   -9.1276120 
H    -1.0856345   -2.2475971   -8.2470423 
H     0.4289979   -1.3229732   -8.4919908 
H    -2.7031607    0.2750862   -5.8930944 
H    -2.8842018    0.2077860   -7.6659512 
H    -2.9278815   -1.2996070   -6.7005749 
H    -0.6740787    1.4835712   -7.9643154 
H     0.8263110    0.8629249   -7.2106571 
H    -0.4644197    1.5608457   -6.1931358 
