197
Energy =
C    -0.6690159   -3.2107442    1.6750287 
C    -0.5518797   -3.7283136    0.3436104 
C     0.6797797   -3.6388792   -0.3447005 
H    -1.4521264   -4.0308109   -0.2055049 
Pd   -0.0627026   -1.5853527    0.3058139 
P     0.3231218   -0.2895505   -1.5821991 
P    -0.0999705    0.2550944    1.7303523 
H     0.2137722   -3.2810635    2.3240862 
H     1.5772465   -3.4855945    0.2763934 
C    -4.3758995   -2.6002156    3.7839735 
C    -4.3902604   -2.8037955    2.3937301 
C    -3.1950626   -3.0087906    1.6979355 
C    -1.9533527   -3.0315344    2.3784673 
C    -1.9550033   -2.8329897    3.7783046 
C    -3.1527424   -2.6159863    4.4700079 
H    -5.3122506   -2.4337590    4.3263424 
H    -5.3401246   -2.7962440    1.8489160 
H    -3.2275746   -3.1378895    0.6108630 
H    -1.0045827   -2.8406379    4.3230929 
H    -3.1298932   -2.4621159    5.5533805 
C     1.6493556   -4.7678674   -4.3722992 
C     2.6244957   -4.2238460   -3.5222243 
C     2.2860565   -3.8650750   -2.2146838 
C     0.9682831   -4.0372353   -1.7278248 
C    -0.0035167   -4.5776762   -2.6003978 
C     0.3355937   -4.9372334   -3.9078470 
H     1.9113554   -5.0650022   -5.3927759 
H     3.6502062   -4.0820677   -3.8780750 
H     3.0493099   -3.4413758   -1.5538999 
H    -1.0300404   -4.7262287   -2.2542725 
H    -0.4287861   -5.3540634   -4.5706417 
C    -5.0553629   -0.0079189   -0.3345207 
C    -5.2647721    1.1812925    0.6286174 
C    -6.1975627    0.7383512    1.7860164 
C    -5.9339498    2.3295643   -0.1657630 
C    -3.9315195    1.6512331    1.2418098 
C    -2.7771276    0.8464724    1.2198513 
C    -3.8402638    2.9035253    1.8783980 
C    -2.6533308    3.3936206    2.4630135 
C    -2.6319749    4.7915531    3.1092223 
C    -3.6332103    4.8189135    4.2919200 
C    -3.0395783    5.8456988    2.0474536 
C    -1.2286677    5.1571352    3.6369592 
C    -1.5165209    2.5732010    2.4102308 
C    -1.5857901    1.3066119    1.8001522 
C     0.2670802   -0.2596761    3.4515266 
C    -0.5007556    0.1808768    4.5434459 
C    -0.2186742   -0.2744303    5.8432274 
C    -1.0119467    0.2267890    7.0661418 
C    -2.2874484    0.9918073    6.6492467 
C    -1.4305244   -0.9631800    7.9653169 
C    -0.0958149    1.1832234    7.8745567 
C     0.8490259   -1.1830731    6.0117709 
C     1.6259961   -1.6549406    4.9366944 
C     1.3093349   -1.1812755    3.6498251 
C     2.7941870   -2.6454367    5.1105102 
C     2.9136487   -3.1565666    6.5610917 
C     4.1135504   -1.9267628    4.7252683 
C     2.5808711   -3.8655749    4.1775742 
C     1.2742172    1.4080138    1.2616873 
C     2.4781832    1.4009579    1.9922370 
C     3.5483259    2.2229593    1.6185727 
C     3.4163263    3.0920739    0.5327057 
C     1.1303685    2.2743435    0.1422084 
C     2.2040549    3.1394152   -0.1709176 
C    -0.1123041    2.3684606   -0.6828329 
C    -0.8244121    3.5893204   -0.6837651 
O    -0.3416902    4.6537021    0.0545528 
C     0.3180269    5.6702948   -0.7298367 
C     1.8194110    5.3989059   -0.7936304 
O     2.0649731    4.0387064   -1.2115493 
C    -2.0237707    3.7390945   -1.3954910 
C    -2.4965188    2.6845280   -2.1808901 
C    -1.7744461    1.4871761   -2.2536520 
C    -0.5913901    1.3161037   -1.5092550 
C     2.0493298    0.1761076   -1.9329436 
C     2.3585613    1.1670952   -2.8817488 
C     3.6957230    1.5232099   -3.1204802 
C     4.0854685    2.6116081   -4.1382401 
C     4.9457435    1.9717874   -5.2573810 
C     4.8957361    3.7163048   -3.4117702 
C     2.8442695    3.2685564   -4.7786427 
C     4.6948608    0.8592017   -2.3771509 
C     4.4119589   -0.1118831   -1.3968270 
C     3.0630267   -0.4447741   -1.1874277 
C     5.5478863   -0.7950975   -0.6110045 
C     6.5614295    0.2596509   -0.1019051 
C     6.2666480   -1.7891752   -1.5596636 
C     5.0076752   -1.5681573    0.6133199 
C    -0.3653356   -1.1154218   -3.0654811 
C    -1.6011143   -1.7807873   -2.9123962 
C    -2.2447811   -2.3565913   -4.0170354 
C    -3.6221708   -3.0398742   -3.9023870 
C    -3.5933836   -4.4315843   -4.5819942 
C    -4.6700878   -2.1391997   -4.6075710 
C    -4.0524954   -3.2344692   -2.4326947 
C    -1.6038521   -2.2596415   -5.2733562 
C    -0.3612683   -1.6268972   -5.4516933 
C     0.2545953   -1.0568101   -4.3181627 
C     0.3009622   -1.4613052   -6.8339626 
C     0.1403406    0.0225742   -7.2612418 
C     1.8092983   -1.8061882   -6.7616407 
C    -0.3529147   -2.3633702   -7.9018083 
H    -6.0164672   -0.2881222   -0.7995824 
H    -4.3459905    0.2505635   -1.1407561 
H    -4.6717414   -0.8971458    0.1923427 
H    -7.1664748    0.3846304    1.3891433 
H    -5.7363301   -0.0796648    2.3661484 
H    -6.3947434    1.5768070    2.4768266 
H    -6.8637790    1.9683333   -0.6392197 
H    -5.2623796    2.7022622   -0.9584653 
H    -6.2055336    3.1809661    0.4808491 
H    -2.7824563   -0.1373658    0.7426024 
H    -4.7323402    3.5365724    1.9115593 
H    -3.6347194    5.8151664    4.7690812 
H    -4.6634984    4.6025357    3.9598943 
H    -3.3581050    4.0701275    5.0558733 
H    -3.0257337    6.8576788    2.4903620 
H    -4.0567098    5.6644380    1.6586682 
H    -2.3328938    5.8204587    1.2005909 
H    -0.8922269    4.4579499    4.4235694 
H    -1.2503449    6.1682104    4.0791600 
H    -0.4838570    5.1553624    2.8221797 
H    -0.5622957    2.9156149    2.8170628 
H    -1.3269556    0.8712640    4.3677144 
H    -2.0523496    1.9103179    6.0830867 
H    -2.8485541    1.2950359    7.5497295 
H    -2.9516001    0.3648664    6.0280046 
H    -0.5596536   -1.5096779    8.3653013 
H    -2.0561757   -1.6814095    7.4076090 
H    -2.0144759   -0.5968811    8.8276888 
H    -0.6280552    1.5645585    8.7643782 
H     0.8183121    0.6675549    8.2173691 
H     0.2104156    2.0458784    7.2570157 
H     1.0757998   -1.5357444    7.0202861 
H     1.8772052   -1.5378650    2.7818958 
H     3.1192504   -2.3347547    7.2690283 
H     3.7492979   -3.8735446    6.6348072 
H     1.9949684   -3.6757165    6.8864863 
H     4.0909067   -1.5745899    3.6790327 
H     4.2876108   -1.0526419    5.3766756 
H     4.9717062   -2.6142329    4.8318754 
H     1.6232841   -4.3693798    4.3982018 
H     2.5790443   -3.5728713    3.1121768 
H     3.3953190   -4.5983885    4.3147486 
H     2.5798499    0.7602870    2.8714760 
H     4.4812823    2.1939647    2.1905184 
H     4.2339265    3.7504193    0.2248591 
H    -0.1179878    5.6930046   -1.7450854 
H     0.1251370    6.6385055   -0.2361879 
H     2.2895017    5.5721061    0.1914838 
H     2.2965882    6.0591908   -1.5383724 
H    -2.5634115    4.6882819   -1.3296035 
H    -3.4226655    2.7974240   -2.7533578 
H    -2.1302328    0.6832269   -2.9029712 
H     1.5450755    1.6776941   -3.4018868 
H     4.3791994    1.1821850   -5.7827868 
H     5.8675738    1.5179028   -4.8538143 
H     5.2415694    2.7360602   -5.9980680 
H     4.2895708    4.1580037   -2.6024222 
H     5.8277305    3.3206133   -2.9722255 
H     5.1738837    4.5146412   -4.1227526 
H     2.2409408    2.5382950   -5.3475290 
H     3.1635236    4.0544770   -5.4847258 
H     2.2012027    3.7359825   -4.0126969 
H     5.7404779    1.1276599   -2.5585514 
H     2.7734556   -1.1704261   -0.4229871 
H     7.3560288   -0.2315114    0.4868306 
H     7.0508289    0.7977199   -0.9310909 
H     6.0612611    1.0040605    0.5411490 
H     5.5627033   -2.5553466   -1.9310146 
H     7.0909798   -2.3020817   -1.0323506 
H     6.6906691   -1.2667190   -2.4348509 
H     5.8474286   -1.9888836    1.1924787 
H     4.4287010   -0.9051212    1.2802277 
H     4.3599399   -2.4134264    0.3191105 
H    -2.0505231   -1.8287578   -1.9145497 
H    -3.3374200   -4.3663185   -5.6528522 
H    -4.5854350   -4.9101520   -4.5062967 
H    -2.8576072   -5.0943237   -4.0938166 
H    -4.4197037   -1.9909514   -5.6722796 
H    -5.6735161   -2.5982569   -4.5526128 
H    -4.7163663   -1.1459494   -4.1266021 
H    -3.3275298   -3.8588603   -1.8796013 
H    -5.0289366   -3.7466535   -2.3942085 
H    -4.1611166   -2.2744845   -1.9009920 
H    -2.1010454   -2.6970401   -6.1424295 
H     1.2193295   -0.5531549   -4.4164328 
H     0.5977836    0.1886560   -8.2531273 
H     0.6311587    0.6996450   -6.5395389 
H    -0.9261568    0.3021136   -7.3194412 
H     1.9607913   -2.8490470   -6.4381115 
H     2.2700063   -1.6800014   -7.7570390 
H     2.3540464   -1.1512481   -6.0597522 
H     0.1760898   -2.2457161   -8.8630634 
H    -1.4105529   -2.0990945   -8.0757970 
H    -0.3028632   -3.4288658   -7.6146223 
