200
Energy =
C     3.4688897    0.3067206    1.3218625 
C     3.3459613    1.6444723    0.8190119 
C     2.3988494    2.5266967    1.3870261 
H     3.8526585    1.9271400   -0.1119519 
Pd    1.4093036    0.6336456    0.5924043 
P    -0.4409522    1.5023461   -0.5137650 
P     0.4758479   -1.4853612    0.8463982 
H     3.2979965    0.1523172    2.3958585 
H     2.0357777    2.2702965    2.3954000 
C     5.6299776   -2.8796459   -0.6130566 
C     5.2573921   -2.9794801    0.7353924 
C     4.5721318   -1.9311122    1.3610598 
C     4.2357294   -0.7580033    0.6472543 
C     4.6153931   -0.6720118   -0.7143725 
C     5.3096567   -1.7161264   -1.3327520 
H     6.1682479   -3.6988208   -1.1007487 
H     5.5045138   -3.8792152    1.3075891 
H     4.2828845   -2.0214245    2.4137050 
H     4.3531745    0.2140680   -1.3018277 
H     5.5988433   -1.6259320   -2.3851393 
C     1.2901015    6.5055271    0.2150982 
C     0.6791396    5.8801005    1.3123104 
C     1.0633581    4.5874046    1.6788973 
C     2.0596485    3.8885262    0.9565803 
C     2.6617134    4.5312403   -0.1493981 
C     2.2790166    5.8253690   -0.5141253 
H     0.9994614    7.5218179   -0.0692019 
H    -0.0951517    6.4011173    1.8850280 
H     0.5839923    4.1022043    2.5348722 
H     3.4375095    4.0202920   -0.7262956 
H     2.7525155    6.3071227   -1.3751012 
C     2.5043880   -1.3461627   -4.1260510 
C     2.0145630   -2.8099965   -4.1175732 
C     3.2439373   -3.7549518   -4.1485197 
C     1.1533780   -3.0347546   -5.3848625 
C     1.1970678   -3.1234669   -2.8497719 
C     1.2079510   -2.2800989   -1.7240338 
C     0.4272368   -4.3000041   -2.7742963 
C    -0.3500851   -4.6487319   -1.6505480 
C    -1.1804842   -5.9460095   -1.6614518 
C    -2.1324023   -5.9325284   -2.8845045 
C    -0.2207319   -7.1590923   -1.7621644 
C    -2.0333435   -6.0905313   -0.3835647 
C    -0.3371295   -3.7734568   -0.5535323 
C     0.4483952   -2.6065195   -0.5898165 
C     1.2956001   -2.3918728    2.2139509 
C     1.5689878   -1.6764696    3.3978229 
C     2.2520564   -2.2827004    4.4635715 
C     2.6112790   -1.5213773    5.7539987 
C     2.0165067   -2.2641859    6.9771319 
C     2.0628001   -0.0788522    5.7474182 
C     4.1559730   -1.4585822    5.8784299 
C     2.6471763   -3.6289357    4.3035706 
C     2.4010184   -4.3666690    3.1309163 
C     1.7212894   -3.7215119    2.0786317 
C     2.8276986   -5.8447497    3.0316747 
C     1.8724521   -6.6794500    3.9252509 
C     2.7416292   -6.3697941    1.5815359 
C     4.2830859   -6.0270256    3.5289006 
C    -1.2947447   -1.3101083    1.3593392 
C    -1.6721392   -1.4933881    2.7046445 
C    -3.0000691   -1.2951221    3.1038244 
C    -3.9720030   -0.9218861    2.1696640 
C    -2.2690267   -0.9352544    0.3981128 
C    -3.6091387   -0.7661924    0.8232386 
C    -1.9964392   -0.7871553   -1.0653313 
C    -2.5982517   -1.7314717   -1.9317718 
O    -3.3245061   -2.7293421   -1.3305978 
C    -4.6314576   -3.0373015   -1.8533184 
C    -5.6053365   -1.8606660   -1.7423419 
C    -5.6848834   -1.2290564   -0.3496541 
O    -4.5251423   -0.3947143   -0.1263419 
C    -2.4154740   -1.6619880   -3.3212030 
C    -1.6572145   -0.6183794   -3.8625516 
C    -1.0788849    0.3475399   -3.0298156 
C    -1.2411666    0.2688630   -1.6322290 
C    -1.7892190    2.1266850    0.5419155 
C    -3.0388617    2.4763662    0.0010577 
C    -4.0629349    2.9477797    0.8387502 
C    -5.4540669    3.3306659    0.3003257 
C    -6.5298816    2.5023164    1.0484530 
C    -5.5839017    3.0399386   -1.2098225 
C    -5.6929474    4.8428836    0.5411954 
C    -3.7899695    3.0468854    2.2188742 
C    -2.5615279    2.6653809    2.7931975 
C    -1.5594695    2.2020366    1.9251412 
C    -2.3374920    2.7788834    4.3133271 
C    -3.5248150    2.1402642    5.0765805 
C    -2.2301174    4.2808889    4.6833320 
C    -1.0446907    2.0581880    4.7539485 
C     0.0852991    2.8425159   -1.6473145 
C     1.2738787    2.6299572   -2.3754061 
C     1.6998831    3.5592450   -3.3390688 
C     2.9756618    3.3464331   -4.1783065 
C     3.8002079    4.6557841   -4.2499257 
C     2.5501343    2.9194368   -5.6073371 
C     3.8816613    2.2484043   -3.5808701 
C     0.8956373    4.6992411   -3.5438785 
C    -0.2710667    4.9615598   -2.8004663 
C    -0.6625101    4.0131426   -1.8365849 
C    -1.1262522    6.2103323   -3.0924150 
C    -2.1074661    6.5126815   -1.9373015 
C    -0.2316927    7.4553522   -3.3089127 
C    -1.9399528    5.9353061   -4.3849211 
H     3.0438275   -1.1350701   -5.0657037 
H     3.1987150   -1.1458077   -3.2935522 
H     1.6580865   -0.6403753   -4.0504172 
H     3.8633371   -3.5554380   -5.0418356 
H     3.8679917   -3.6106423   -3.2495025 
H     2.9298444   -4.8130117   -4.1786573 
H     1.7333814   -2.7709738   -6.2867880 
H     0.2464114   -2.4062720   -5.3580242 
H     0.8383150   -4.0863620   -5.4932980 
H     1.7916840   -1.3556467   -1.7146172 
H     0.4231635   -4.9742865   -3.6365344 
H    -2.7548458   -6.8448813   -2.8957790 
H    -2.7988096   -5.0549836   -2.8398970 
H    -1.5778407   -5.8936960   -3.8377558 
H     0.3896875   -7.1192272   -2.6810739 
H     0.4671745   -7.1864738   -0.8989105 
H    -0.7950521   -8.1026646   -1.7772347 
H    -2.6348632   -7.0143191   -0.4393998 
H    -1.4040960   -6.1591828    0.5218460 
H    -2.7222474   -5.2362380   -0.2646884 
H    -0.9490875   -3.9737860    0.3288507 
H     1.2534319   -0.6307094    3.4669283 
H     2.4077632   -3.2924147    7.0618314 
H     0.9163347   -2.3231988    6.9029335 
H     2.2724964   -1.7300854    7.9092871 
H     2.4815723    0.5176944    4.9164019 
H     0.9621388   -0.0596334    5.6672688 
H     2.3389618    0.4282831    6.6876656 
H     4.6015974   -2.4667866    5.9296547 
H     4.4455245   -0.9132958    6.7943302 
H     4.5978489   -0.9357070    5.0112104 
H     3.1778674   -4.1164365    5.1273180 
H     1.5311770   -4.2483734    1.1425334 
H     1.9237999   -6.3525168    4.9786294 
H     2.1436610   -7.7496522    3.8840677 
H     0.8268693   -6.5730445    3.5862022 
H     3.3646068   -5.7691589    0.8950577 
H     3.0987588   -7.4131776    1.5429775 
H     1.7052981   -6.3624520    1.2007483 
H     4.9852772   -5.4157837    2.9358003 
H     4.5839206   -7.0849618    3.4334395 
H     4.3996924   -5.7467932    4.5895369 
H    -0.9303994   -1.8078172    3.4432174 
H    -3.2767586   -1.4352658    4.1538459 
H    -5.0088348   -0.7473859    2.4722515 
H    -4.5664571   -3.3896301   -2.9005588 
H    -4.9658495   -3.8871729   -1.2361509 
H    -5.3315664   -1.0687098   -2.4629851 
H    -6.6091842   -2.2249203   -2.0314962 
H    -6.5697878   -0.5732118   -0.2804022 
H    -5.7559327   -1.9976807    0.4422821 
H    -2.8611932   -2.4203309   -3.9707510 
H    -1.5202391   -0.5516434   -4.9467206 
H    -0.5106155    1.1707297   -3.4702377 
H    -3.2100009    2.3449529   -1.0695509 
H    -7.5345750    2.7281322    0.6489801 
H    -6.3328591    1.4242735    0.9223945 
H    -6.5423085    2.7236200    2.1294444 
H    -5.4092933    1.9717027   -1.4271661 
H    -6.6002617    3.3000107   -1.5526417 
H    -4.8710055    3.6384005   -1.8050681 
H    -4.9355152    5.4477425    0.0118193 
H    -6.6913769    5.1376549    0.1716198 
H    -5.6407732    5.0963369    1.6143944 
H    -4.5801118    3.4191265    2.8789044 
H    -0.5926522    1.8648546    2.3080940 
H    -4.4769922    2.6561728    4.8667198 
H    -3.6416484    1.0791522    4.7970045 
H    -3.3509552    2.1974062    6.1656295 
H    -2.0727312    4.4022921    5.7701319 
H    -3.1492168    4.8264278    4.4070617 
H    -1.3833683    4.7555603    4.1561112 
H    -0.1404222    2.5218075    4.3206806 
H    -1.0613039    0.9938857    4.4599800 
H    -0.9417451    2.1098388    5.8514016 
H     1.8545647    1.7218854   -2.1803202 
H     3.2460018    5.4722676   -4.7422820 
H     4.7246206    4.4885872   -4.8298820 
H     4.0870908    4.9974515   -3.2394716 
H     3.4378652    2.7687054   -6.2476561 
H     1.9796951    1.9740699   -5.5776229 
H     1.9130530    3.6879931   -6.0786257 
H     4.1888684    2.4990634   -2.5493556 
H     4.7980107    2.1485060   -4.1871540 
H     3.3872555    1.2637509   -3.5671326 
H     1.1995124    5.4199993   -4.3081970 
H    -1.5562525    4.1780777   -1.2326580 
H    -1.5741939    6.6347469   -0.9781893 
H    -2.6547298    7.4471475   -2.1492696 
H    -2.8600743    5.7142183   -1.8128856 
H    -0.8616263    8.3453785   -3.4811849 
H     0.4277499    7.3475486   -4.1868407 
H     0.4020605    7.6463037   -2.4264450 
H    -2.5714920    6.8064299   -4.6364423 
H    -2.5963275    5.0566934   -4.2544889 
H    -1.2706171    5.7366649   -5.2403467 
