206
Energy =
C    -0.7847343   -3.7240384    0.6646060 
C    -2.1230114   -3.2707990    0.6247328 
C    -2.6616233   -2.7218107   -0.5839480 
H    -2.6843722   -3.1787443    1.5624902 
Pd   -0.9034056   -1.5348557    0.0493989 
P    -0.9297331    0.1791312   -1.5333631 
P     0.7955780   -0.5840778    1.3234343 
H    -0.3117542   -3.9457365   -0.3057951 
H    -2.3029040   -3.1403648   -1.5337088 
C     1.4569076   -5.2904283    3.9741933 
C     2.0454634   -5.1512081    2.7078521 
C     1.2976593   -4.6365996    1.6453255 
C    -0.0508284   -4.2461341    1.8239416 
C    -0.6231506   -4.3785827    3.1094679 
C     0.1247317   -4.8943582    4.1716814 
H     2.0312980   -5.7126611    4.8048185 
H     3.0870149   -5.4484422    2.5473374 
H     1.7591406   -4.5298479    0.6584250 
H    -1.6634474   -4.0883835    3.2797564 
H    -0.3347453   -4.9923799    5.1600531 
C    -6.3760202   -0.5594463   -0.8835303 
C    -5.7442407   -1.0644498   -2.0292672 
C    -4.5475737   -1.7830519   -1.9210400 
C    -3.9480461   -2.0038570   -0.6598511 
C    -4.5948763   -1.4853900    0.4878598 
C    -5.7969128   -0.7804125    0.3773046 
H    -7.3135893   -0.0006729   -0.9694108 
H    -6.1883527   -0.9020491   -3.0163673 
H    -4.0626776   -2.1732776   -2.8224889 
H    -4.1471602   -1.6216406    1.4774502 
H    -6.2834579   -0.3945174    1.2792587 
C    -2.6033728   -0.2045914    6.3678917 
C    -2.3972653   -1.4820438    5.5121505 
C    -2.5815602   -2.7377979    6.4001335 
C    -3.4776935   -1.5169241    4.4108573 
C    -0.9725314   -1.4414872    4.9239883 
C    -0.7267101   -1.1575930    3.5725931 
C     0.1441121   -1.6518935    5.7644711 
C     1.4685712   -1.6133341    5.2977234 
C     2.6877995   -1.7725258    6.2281642 
C     2.2850819   -2.2423779    7.6415048 
C     3.6881333   -2.7979732    5.6404827 
C     3.3836075   -0.3895073    6.3416453 
C     1.6759716   -1.3411874    3.9291789 
C     0.5944837   -1.0889975    3.0777715 
C     2.5139810   -0.9368132    0.8235287 
C     2.7216904   -1.8801946   -0.1960281 
C     4.0224327   -2.2297210   -0.5925823 
C     4.2906402   -3.2613490   -1.7048278 
C     5.2874025   -2.6752241   -2.7362443 
C     2.9956655   -3.6424976   -2.4542439 
C     4.8940254   -4.5373403   -1.0631605 
C     5.0951056   -1.6186195    0.0876577 
C     4.9195473   -0.6488331    1.0960881 
C     3.6028968   -0.2960435    1.4409364 
C     6.1414387   -0.0538932    1.8238875 
C     6.7386414   -1.1552860    2.7393369 
C     7.2158446    0.4001750    0.8052958 
C     5.7528985    1.1596510    2.6958486 
C     0.6631962    1.2557232    1.3773049 
C     0.1794606    1.9068488    2.5295852 
C     0.0369047    3.2983046    2.5325688 
C     0.3776439    4.0566219    1.4075054 
C     1.0022379    2.0018172    0.2233694 
C     0.8689024    3.4141699    0.2567363 
C     1.5720696    1.3943060   -1.0179347 
C     2.9344348    1.6690519   -1.3077595 
O     3.5957844    2.4160859   -0.3772255 
C     4.7868481    3.1194018   -0.7776836 
C     4.4864153    4.3046150   -1.7096437 
C     4.1798492    5.6328579   -0.9942348 
C     2.9385262    5.6773663   -0.0845452 
C     1.5944569    5.4587489   -0.7990700 
O     1.2284509    4.0683361   -0.8858984 
C     3.5313542    1.1686654   -2.4786556 
C     2.7687914    0.4124373   -3.3745359 
C     1.4198729    0.1450545   -3.1193852 
C     0.8169326    0.6303549   -1.9412274 
C    -1.7799948    1.7408618   -1.1296453 
C    -1.6597118    2.8575367   -1.9784754 
C    -2.3701986    4.0369030   -1.6975511 
C    -2.3530220    5.2574007   -2.6392484 
C    -3.7621076    5.4082567   -3.2706454 
C    -1.3143701    5.0925261   -3.7688319 
C    -2.0155845    6.5439105   -1.8455643 
C    -3.1508861    4.0648661   -0.5240774 
C    -3.2520290    2.9791165    0.3671100 
C    -2.5664703    1.7979700    0.0327698 
C    -4.1188804    3.1009085    1.6349480 
C    -5.6093083    3.1403067    1.2083599 
C    -3.9016625    1.9062123    2.5871477 
C    -3.7620934    4.3994238    2.4004033 
C    -1.6447079   -0.4431781   -3.1069848 
C    -1.2562353   -1.7354885   -3.5163239 
C    -1.8012908   -2.3237363   -4.6680299 
C    -1.4450854   -3.7550600   -5.1127117 
C    -0.8911597   -3.7267989   -6.5596308 
C    -0.3818758   -4.3981477   -4.1975733 
C    -2.7293591   -4.6229427   -5.0587681 
C    -2.7374287   -1.5664010   -5.4039092 
C    -3.1481951   -0.2752656   -5.0240017 
C    -2.5942203    0.2745536   -3.8502397 
C    -4.1530504    0.5014962   -5.8979242 
C    -3.4720884    0.8243792   -7.2540513 
C    -4.5852785    1.8266337   -5.2359318 
C    -5.4181267   -0.3563826   -6.1503740 
H    -1.8628237   -0.1475513    7.1845149 
H    -2.4962262    0.7016666    5.7456820 
H    -3.6123012   -0.1989339    6.8183674 
H    -1.8844467   -2.7511015    7.2546560 
H    -2.4238045   -3.6612032    5.8155509 
H    -3.6066017   -2.7637796    6.8095532 
H    -4.4793945   -1.5702398    4.8702579 
H    -3.4527618   -0.6158387    3.7769521 
H    -3.3609562   -2.4034389    3.7618736 
H    -1.5559230   -0.9757820    2.8799577 
H    -0.0357931   -1.8535033    6.8227816 
H     3.1888654   -2.3749068    8.2606890 
H     1.7523563   -3.2094525    7.6094171 
H     1.6407828   -1.5063102    8.1534428 
H     3.2288630   -3.7969462    5.5674582 
H     4.5780542   -2.8709988    6.2901909 
H     4.0325673   -2.5119190    4.6320469 
H     3.7308559   -0.0348041    5.3552579 
H     2.6909781    0.3669076    6.7502239 
H     4.2612310   -0.4543091    7.0096586 
H     2.6924622   -1.3120557    3.5298615 
H     1.8458159   -2.3156689   -0.6843441 
H     5.4674905   -3.4024574   -3.5476564 
H     6.2633889   -2.4398216   -2.2787576 
H     4.8856662   -1.7485247   -3.1810341 
H     3.2293790   -4.3437539   -3.2736800 
H     2.2656813   -4.1449365   -1.7943812 
H     2.5101969   -2.7523627   -2.8917363 
H     4.1955396   -4.9740014   -0.3270143 
H     5.8406507   -4.3146262   -0.5408654 
H     5.1014665   -5.2984788   -1.8365721 
H     6.1154062   -1.9055519   -0.1861154 
H     3.4098502    0.4827923    2.1820055 
H     7.6198662   -0.7694461    3.2827950 
H     7.0558861   -2.0350228    2.1524732 
H     5.9948214   -1.4922654    3.4825057 
H     7.5921776   -0.4390215    0.1960657 
H     6.8117469    1.1643147    0.1203108 
H     8.0801194    0.8359535    1.3365110 
H     6.6577182    1.5983867    3.1503085 
H     5.2512734    1.9409108    2.0990373 
H     5.0778768    0.8728011    3.5209161 
H    -0.0675202    1.3317109    3.4253245 
H    -0.3330237    3.8035368    3.4306755 
H     0.2648006    5.1426934    1.4333877 
H     5.4999996    2.4138316   -1.2406492 
H     5.2349188    3.4569371    0.1710871 
H     5.3681655    4.4616646   -2.3579276 
H     3.6580412    4.0173674   -2.3841554 
H     5.0617859    5.9142122   -0.3870121 
H     4.0799798    6.4238984   -1.7622392 
H     3.0217410    4.9401589    0.7358801 
H     2.9078638    6.6708014    0.3997807 
H     0.7854185    6.0281727   -0.3075267 
H     1.6346777    5.7940020   -1.8482841 
H     4.5818429    1.3701438   -2.6991576 
H     3.2317255    0.0364535   -4.2928237 
H     0.8342122   -0.4227504   -3.8460714 
H    -1.0055461    2.7926170   -2.8511047 
H    -3.7838413    6.2719813   -3.9592453 
H    -4.0370587    4.5040065   -3.8398155 
H    -4.5334281    5.5695972   -2.4974043 
H    -1.2969481    5.9999485   -4.3967532 
H    -1.5578398    4.2399230   -4.4273078 
H    -0.2999091    4.9346694   -3.3625356 
H    -1.9992414    7.4151432   -2.5240243 
H    -1.0261634    6.4619885   -1.3663920 
H    -2.7596144    6.7507837   -1.0576474 
H    -3.7067477    4.9791587   -0.2928735 
H    -2.6208592    0.9116641    0.6707203 
H    -5.8781492    2.2266006    0.6507895 
H    -6.2632685    3.2159459    2.0959720 
H    -5.8152557    4.0084590    0.5581333 
H    -4.2122317    0.9568938    2.1207062 
H    -4.5040551    2.0400161    3.5024451 
H    -2.8416962    1.8172460    2.8847328 
H    -4.3634200    4.4716648    3.3239274 
H    -3.9663854    5.3033029    1.8016469 
H    -2.6942274    4.4072446    2.6780468 
H    -0.5296857   -2.2833978   -2.9082081 
H     0.0222099   -3.1089239   -6.6175707 
H    -1.6266452   -3.3149184   -7.2715923 
H    -0.6392555   -4.7495115   -6.8916924 
H    -0.7339640   -4.4832522   -3.1531608 
H    -0.1544514   -5.4182473   -4.5512389 
H     0.5609176   -3.8244800   -4.1999861 
H    -3.1427986   -4.6469529   -4.0344388 
H    -2.5051974   -5.6601861   -5.3652211 
H    -3.5125494   -4.2331789   -5.7314634 
H    -3.1699507   -2.0081354   -6.3075040 
H    -2.9099232    1.2587854   -3.5016056 
H    -4.1647624    1.3853094   -7.9066865 
H    -2.5665054    1.4374680   -7.1010988 
H    -3.1741295   -0.0962843   -7.7853857 
H    -3.7287956    2.5095592   -5.0986055 
H    -5.0548424    1.6581665   -4.2504929 
H    -5.3196390    2.3422838   -5.8781365 
H    -5.1821810   -1.2991451   -6.6726936 
H    -5.9193973   -0.6100621   -5.2005690 
H    -6.1349230    0.2013770   -6.7783025 
