200
Energy =
C     3.4860392    0.1848592    1.3195302 
C     3.4682663    1.5035056    0.7666038 
C     2.5746532    2.4888823    1.2401780 
H     4.0201477    1.7048172   -0.1604114 
Pd    1.4537417    0.6273468    0.5454456 
P    -0.4239401    1.5220821   -0.5052476 
P     0.4760318   -1.4708405    0.8152943 
H     3.2740187    0.0767363    2.3913893 
H     2.1211157    2.3297881    2.2320799 
C     5.6138991   -3.1239804   -0.4396195 
C     5.2996198   -1.9994375   -1.2216111 
C     4.6097583   -0.9215203   -0.6601071 
C     4.2263289   -0.9335367    0.7028536 
C     4.5518177   -2.0692151    1.4776485 
C     5.2367723   -3.1511075    0.9105791 
H     6.1505818   -3.9698599   -0.8812899 
H     5.5917452   -1.9655358   -2.2764225 
H     4.3537346   -0.0643005   -1.2926051 
H     4.2582897   -2.1023777    2.5323850 
H     5.4796011   -4.0197720    1.5304160 
C     2.1867983    6.4940153   -0.2693281 
C     1.1693846    5.9230481    0.5111788 
C     1.3095267    4.6230599    1.0055325 
C     2.4622471    3.8583224    0.7125948 
C     3.4822171    4.4481574   -0.0674509 
C     3.3462962    5.7548542   -0.5481956 
H     2.0822888    7.5145348   -0.6509950 
H     0.2607982    6.4925365    0.7327081 
H     0.5061104    4.1782844    1.6027568 
H     4.4049424    3.8950148   -0.2686526 
H     4.1553714    6.2047846   -1.1325645 
C     1.1412424   -2.7847668   -5.4453305 
C     2.0245938   -2.6422295   -4.1811672 
C     2.5462309   -1.1901170   -4.1239524 
C     3.2315178   -3.6109654   -4.2790979 
C     1.2144336   -3.0029570   -2.9209664 
C     1.2146423   -2.1926031   -1.7718994 
C     0.4583971   -4.1902461   -2.8788090 
C    -0.3146256   -4.5793253   -1.7653130 
C    -1.1311634   -5.8845617   -1.8132016 
C    -2.0865918   -5.8437085   -3.0329073 
C    -0.1589391   -7.0837187   -1.9525246 
C    -1.9791117   -6.0767506   -0.5382632 
C    -0.3115063   -3.7358738   -0.6432361 
C     0.4606277   -2.5598100   -0.6462004 
C     1.2716041   -2.4053952    2.1779677 
C     1.6774123   -3.7434587    2.0397989 
C     2.2928275   -4.4165239    3.1102807 
C     2.6842692   -5.9042223    3.0084903 
C     1.6435471   -6.7255204    3.8152887 
C     4.0940905   -6.1444159    3.6024627 
C     2.6837299   -6.3978367    1.5446161 
C     2.4983626   -3.7046883    4.3118570 
C     2.1220479   -2.3574759    4.4743006 
C     1.5074684   -1.7188009    3.3813125 
C     2.3315968   -1.5781799    5.7874686 
C     0.9428540   -1.3197343    6.4285423 
C     3.2059238   -2.3565516    6.7926298 
C     3.0220594   -0.2227599    5.4876983 
C    -1.2973260   -1.3202490    1.3300000 
C    -1.6758258   -1.5433639    2.6695633 
C    -3.0077445   -1.3805321    3.0698092 
C    -3.9832260   -0.9985038    2.1434020 
C    -2.2754283   -0.9390851    0.3759828 
C    -3.6186397   -0.8000401    0.8034578 
C    -2.0048878   -0.7561085   -1.0835553 
C    -2.6095444   -1.6815835   -1.9696173 
O    -3.3276997   -2.6967948   -1.3881927 
C    -4.6322056   -3.0071425   -1.9154887 
C    -5.6165564   -1.8415934   -1.7812567 
C    -5.6975123   -1.2377948   -0.3765116 
O    -4.5361849   -0.4105004   -0.1370990 
C    -2.4375582   -1.5776191   -3.3579776 
C    -1.6823874   -0.5214447   -3.8789713 
C    -1.0942537    0.4205408   -3.0267375 
C    -1.2492721    0.3102391   -1.6300962 
C    -1.7325242    2.0980837    0.6273225 
C    -3.0221160    2.4177963    0.1681312 
C    -4.0014048    2.8665045    1.0703285 
C    -5.4302824    3.2251621    0.6199881 
C    -5.6431201    2.9586639   -0.8852339 
C    -5.6870610    4.7275957    0.9009116 
C    -6.4421422    2.3594576    1.4135805 
C    -3.6450123    2.9706292    2.4312860 
C    -2.3720807    2.6228061    2.9249032 
C    -1.4173898    2.1847230    1.9932798 
C    -2.0550982    2.7310606    4.4284963 
C    -2.0810854    4.2260958    4.8372781 
C    -0.6641751    2.1480601    4.7606754 
C    -3.1140829    1.9470735    5.2436672 
C     0.0187935    2.9033784   -1.6223965 
C     1.2252396    2.7753342   -2.3336290 
C     1.5895677    3.7212848   -3.3073938 
C     2.8493294    3.5391004   -4.1770923 
C     2.4001205    2.9475116   -5.5397098 
C     3.8606814    2.5698769   -3.5239374 
C     3.5616302    4.8923388   -4.4131434 
C     0.7179320    4.8091317   -3.5119363 
C    -0.4800827    4.9839754   -2.7887908 
C    -0.8210737    4.0076388   -1.8372628 
C    -1.3799770    6.2038902   -3.0696977 
C    -2.6300101    6.2215617   -2.1636398 
C    -0.5795228    7.5073431   -2.8202126 
C    -1.8459220    6.1553391   -4.5479183 
H     1.7178151   -2.5008222   -6.3433926 
H     0.2557141   -2.1299578   -5.3783991 
H     0.7906042   -3.8203713   -5.5925068 
H     3.0770831   -0.9435585   -5.0597258 
H     1.7165981   -0.4710526   -4.0022804 
H     3.2558193   -1.0445485   -3.2925129 
H     3.8478853   -3.3729169   -5.1649112 
H     2.8941497   -4.6583490   -4.3689403 
H     3.8657572   -3.5351328   -3.3791684 
H     1.7835741   -1.2594805   -1.7373321 
H     0.4614794   -4.8397935   -3.7601135 
H    -2.6995237   -6.7617680   -3.0706830 
H    -2.7617765   -4.9748072   -2.9596626 
H    -1.5350142   -5.7697542   -3.9858141 
H     0.4487111   -7.0097916   -2.8711443 
H     0.5314796   -7.1296424   -1.0920086 
H    -0.7232298   -8.0324967   -1.9946677 
H    -2.5697936   -7.0055506   -0.6201913 
H    -1.3468721   -6.1646349    0.3634614 
H    -2.6780491   -5.2347560   -0.3926141 
H    -0.9219254   -3.9680602    0.2323420 
H     1.5184451   -4.2516594    1.0877562 
H     0.6281957   -6.5795067    3.4061854 
H     1.6307821   -6.4203219    4.8763078 
H     1.8846306   -7.8028119    3.7703610 
H     4.8557940   -5.5436304    3.0761207 
H     4.1434306   -5.8929983    4.6754412 
H     4.3678482   -7.2091571    3.5019061 
H     1.6758871   -6.3573217    1.0956405 
H     3.0174352   -7.4490296    1.5073635 
H     3.3651604   -5.7988089    0.9148680 
H     2.9720880   -4.2229342    5.1482974 
H     1.2063690   -0.6674910    3.4611673 
H     0.2902904   -0.7398845    5.7528894 
H     1.0514825   -0.7489591    7.3682558 
H     0.4352618   -2.2726803    6.6588906 
H     4.2007122   -2.5866293    6.3720008 
H     3.3554106   -1.7501815    7.7024404 
H     2.7312097   -3.3037146    7.1026340 
H     3.9939752   -0.3770392    4.9861871 
H     3.2040028    0.3277270    6.4273243 
H     2.4001480    0.4251022    4.8445687 
H    -0.9331875   -1.8643872    3.4037793 
H    -3.2847866   -1.5558717    4.1143551 
H    -5.0233923   -0.8499197    2.4480488 
H    -4.5651874   -3.3395345   -2.9690827 
H    -4.9579033   -3.8713697   -1.3138166 
H    -5.3507903   -1.0340183   -2.4873501 
H    -6.6179201   -2.2087930   -2.0751697 
H    -6.5811193   -0.5816081   -0.2940609 
H    -5.7697798   -2.0221913    0.3996278 
H    -2.8886832   -2.3191505   -4.0229710 
H    -1.5551509   -0.4264974   -4.9621518 
H    -0.5244302    1.2514185   -3.4504973 
H    -3.2601157    2.2792320   -0.8885996 
H    -6.6836605    3.2017140   -1.1615672 
H    -4.9805087    3.5848780   -1.5087087 
H    -5.4573966    1.8994341   -1.1329714 
H    -4.9734465    5.3568602    0.3399336 
H    -6.7105541    5.0057786    0.5920845 
H    -5.5810769    4.9653462    1.9737069 
H    -6.3862732    2.5502394    2.4990547 
H    -7.4740063    2.5799783    1.0870846 
H    -6.2396584    1.2885523    1.2428257 
H    -4.4012192    3.3208197    3.1417217 
H    -0.4189262    1.8750361    2.3139465 
H    -1.3280389    4.8002770    4.2687971 
H    -3.0696175    4.6781699    4.6452127 
H    -1.8600307    4.3354179    5.9141391 
H    -0.4857415    2.1985880    5.8483515 
H     0.1481344    2.7107424    4.2662819 
H    -0.5910063    1.0892864    4.4545881 
H    -3.1205745    0.8835806    4.9497071 
H    -4.1301069    2.3495315    5.0918428 
H    -2.8880150    2.0102994    6.3228709 
H     1.8678750    1.9130405   -2.1262878 
H     1.9062094    1.9697017   -5.3973143 
H     3.2706419    2.8020191   -6.2047103 
H     1.6866319    3.6201561   -6.0470189 
H     4.7712934    2.5069725   -4.1439714 
H     4.1542943    2.9204783   -2.5192494 
H     3.4565827    1.5473951   -3.4330836 
H     2.9319237    5.6012962   -4.9766667 
H     4.4828828    4.7353502   -5.0008248 
H     3.8364988    5.3645166   -3.4547255 
H     0.9823769    5.5549172   -4.2676087 
H    -1.7376923    4.1022584   -1.2533923 
H    -2.3598861    6.2603647   -1.0931499 
H    -3.2385824    7.1142223   -2.3883466 
H    -3.2674719    5.3345282   -2.3268715 
H    -1.2058815    8.3883437   -3.0467683 
H     0.3225822    7.5625464   -3.4535432 
H    -0.2597854    7.5720175   -1.7663861 
H    -2.4988297    7.0178382   -4.7715794 
H    -2.4134889    5.2297443   -4.7490152 
H    -0.9916736    6.1898388   -5.2459237 
