206
Energy =
C    -0.5344990   -3.7745537    0.5543908 
C    -1.9037590   -3.4410109    0.4410485 
C    -2.4232799   -2.9350647   -0.7920553 
H    -2.5298533   -3.4198913    1.3415652 
Pd   -0.8169149   -1.5927635   -0.0446738 
P    -0.9691037    0.2131428   -1.5035750 
P     0.8375026   -0.5997368    1.2654476 
H     0.0060515   -3.9519506   -0.3888612 
H    -1.9524370   -3.2968240   -1.7159699 
C     1.5973277   -5.2558316    3.9744824 
C     2.2444340   -5.0906020    2.7404439 
C     1.5345276   -4.5989745    1.6410770 
C     0.1649194   -4.2609058    1.7503037 
C    -0.4665531   -4.4162403    3.0053702 
C     0.2435070   -4.9073253    4.1042181 
H     2.1430404   -5.6591943    4.8334799 
H     3.3029761   -5.3492725    2.6332973 
H     2.0425628   -4.4711996    0.6798871 
H    -1.5231136   -4.1601901    3.1229655 
H    -0.2620569   -5.0225378    5.0679344 
C    -6.4543354   -1.5124324   -1.3284846 
C    -5.8727898   -1.4940631   -0.0497246 
C    -4.5601107   -1.9388680    0.1361908 
C    -3.7994187   -2.4274482   -0.9522587 
C    -4.3946999   -2.4299684   -2.2333367 
C    -5.7071037   -1.9805636   -2.4189843 
H    -7.4827583   -1.1646386   -1.4708578 
H    -6.4467275   -1.1264137    0.8069686 
H    -4.1168176   -1.8962863    1.1370698 
H    -3.8189949   -2.7903956   -3.0906404 
H    -6.1477694   -2.0044521   -3.4204357 
C    -2.6537298   -2.9269718    6.1135594 
C    -2.4555132   -1.5971781    5.3430045 
C    -3.5038637   -1.5412743    4.2115305 
C    -2.6956427   -0.4016417    6.3014821 
C    -1.0142980   -1.5080894    4.8026724 
C    -0.7306560   -1.2153350    3.4609900 
C     0.0794848   -1.7000326    5.6768619 
C     1.4177309   -1.6334545    5.2529254 
C     2.6050063   -1.7542949    6.2292441 
C     3.1787505   -0.3281177    6.4470796 
C     2.1780915   -2.3361046    7.5935791 
C     3.7138734   -2.6601459    5.6409692 
C     1.6631443   -1.3570819    3.8914839 
C     0.6034907   -1.1265533    3.0076635 
C     2.5480532   -0.9764765    0.7494298 
C     2.7236737   -1.8731378   -0.3176662 
C     4.0096752   -2.2303304   -0.7513375 
C     4.2373321   -3.2036218   -1.9238037 
C     5.1854478   -2.5534402   -2.9629243 
C     2.9141054   -3.5591117   -2.6364693 
C     4.8774807   -4.5055844   -1.3773260 
C     5.1049249   -1.6773651   -0.0570561 
C     4.9633353   -0.7556668    1.0005549 
C     3.6591962   -0.3889921    1.3791788 
C     6.2070009   -0.2281334    1.7437279 
C     7.2840715    0.2509626    0.7395500 
C     5.8573067    0.9480863    2.6810743 
C     6.7852726   -1.3899615    2.5942995 
C     0.7674618    1.2403372    1.3716154 
C     0.3876615    1.8765601    2.5699353 
C     0.3344451    3.2731388    2.6273500 
C     0.6594452    4.0489946    1.5102145 
C     1.0907451    2.0045779    0.2259495 
C     1.0446793    3.4203545    0.3125833 
C     1.5752390    1.4110367   -1.0570411 
C     2.9349108    1.6510442   -1.3946604 
O     3.6618670    2.3254045   -0.4586303 
C     4.8874438    2.9628700   -0.8628195 
C     4.6443164    4.1990722   -1.7434924 
C     4.4255731    5.5116092   -0.9698916 
C     3.2114626    5.5794049   -0.0256656 
C     1.8389672    5.4593930   -0.7098760 
O     1.3829768    4.0968349   -0.8246786 
C     3.4642610    1.1931813   -2.6138471 
C     2.6366179    0.5104703   -3.5102311 
C     1.2953033    0.2656551   -3.2016620 
C     0.7574835    0.7028205   -1.9729898 
C    -1.8066710    1.7202883   -0.9064013 
C    -2.6021772    1.6434176    0.2445701 
C    -3.3132278    2.7731429    0.7017050 
C    -4.1565028    2.6805908    1.9893168 
C    -4.9597390    3.9697860    2.2583539 
C    -3.2072029    2.4335586    3.1890307 
C    -5.1516053    1.5008730    1.8681492 
C    -3.2053245    3.9539292   -0.0506514 
C    -2.4075730    4.0620416   -1.2131605 
C    -1.6936557    2.9283114   -1.6255311 
C    -2.3683755    5.3925669   -1.9889555 
C    -1.3672571    5.3412032   -3.1621062 
C    -3.7833473    5.6840493   -2.5533342 
C    -1.9536766    6.5401625   -1.0342057 
C    -1.7758861   -0.2462887   -3.0884354 
C    -1.3850396   -1.4605628   -3.6879432 
C    -1.9448927   -1.8775557   -4.9061540 
C    -1.5272344   -3.1884244   -5.6013915 
C    -2.7721507   -4.0921036   -5.7924008 
C    -0.9132932   -2.8492814   -6.9842623 
C    -0.4796689   -3.9708873   -4.7811668 
C    -2.9210152   -1.0447542   -5.4925063 
C    -3.3436043    0.1669297   -4.9140658 
C    -2.7581876    0.5530644   -3.6925841 
C    -4.4053776    1.0325675   -5.6221982 
C    -5.7455007    0.2562038   -5.6775655 
C    -3.9275686    1.3498992   -7.0627729 
C    -4.6431219    2.3688257   -4.8871426 
H    -2.4964313   -3.7952356    5.4498902 
H    -1.9604690   -3.0194039    6.9664297 
H    -3.6818745   -2.9844522    6.5121022 
H    -3.3674847   -2.3707521    3.4944686 
H    -3.4645243   -0.5904084    3.6548659 
H    -4.5179821   -1.6324111    4.6365877 
H    -3.7224860   -0.4333339    6.7080491 
H    -1.9920449   -0.4215876    7.1516978 
H    -2.5615655    0.5568131    5.7705224 
H    -1.5395161   -1.0499031    2.7410464 
H    -0.1296093   -1.9104417    6.7284821 
H     4.0322959   -0.3590187    7.1480274 
H     2.4102328    0.3456592    6.8646601 
H     3.5313749    0.1071821    5.4950823 
H     1.4669868   -1.6768323    8.1211222 
H     3.0628612   -2.4490894    8.2433601 
H     1.7115033   -3.3306936    7.4784319 
H     3.3376819   -3.6803294    5.4630868 
H     4.1036380   -2.2734137    4.6840741 
H     4.5624337   -2.7193486    6.3448378 
H     2.6901965   -1.3077219    3.5234312 
H     1.8322925   -2.2655627   -0.8144195 
H     5.3444216   -3.2378053   -3.8150930 
H     6.1743422   -2.3248468   -2.5300087 
H     4.7537785   -1.6128413   -3.3458327 
H     3.1171730   -4.2227067   -3.4944904 
H     2.2152783   -4.0940682   -1.9680635 
H     2.4066721   -2.6546095   -3.0158405 
H     4.2145041   -4.9895658   -0.6380059 
H     5.8440336   -4.3031105   -0.8842181 
H     5.0579949   -5.2216082   -2.1990224 
H     6.1151488   -1.9712819   -0.3599259 
H     3.4949507    0.3615002    2.1554693 
H     8.1652910    0.6325413    1.2845006 
H     6.8963580    1.0622966    0.1012835 
H     7.6307525   -0.5643250    0.0822305 
H     5.3758300    1.7742314    2.1290185 
H     5.1788149    0.6378726    3.4951829 
H     6.7767426    1.3371685    3.1512302 
H     7.6799909   -1.0542975    3.1488575 
H     6.0395113   -1.7482880    3.3252918 
H     7.0760936   -2.2445543    1.9587690 
H     0.1490081    1.2854375    3.4571224 
H     0.0455663    3.7676364    3.5604849 
H     0.6196123    5.1385448    1.5779586 
H     5.5415130    2.2286487   -1.3668747 
H     5.3768256    3.2358456    0.0863348 
H     5.5236332    4.3305040   -2.4007801 
H     3.7899046    3.9883293   -2.4138016 
H     5.3353666    5.7229122   -0.3754809 
H     4.3477053    6.3372136   -1.7031758 
H     3.2793188    4.8047350    0.7608605 
H     3.2443196    6.5512056    0.5004278 
H     1.0783461    6.0638609   -0.1836111 
H     1.8728122    5.8203812   -1.7508601 
H     4.5099431    1.3729482   -2.8721386 
H     3.0424141    0.1709467   -4.4688728 
H     0.6636998   -0.2480251   -3.9290815 
H    -2.6555464    0.6912400    0.7844370 
H    -5.5564160    3.8486484    3.1789940 
H    -4.2992956    4.8426037    2.4042623 
H    -5.6579511    4.1945220    1.4328939 
H    -3.7894546    2.3051169    4.1192016 
H    -2.5184276    3.2844981    3.3226404 
H    -2.5907146    1.5305020    3.0403430 
H    -5.7656213    1.4230734    2.7832314 
H    -4.6280822    0.5412915    1.7311610 
H    -5.8260610    1.6392910    1.0055671 
H    -3.7602773    4.8368111    0.2754154 
H    -1.0399201    2.9644629   -2.5001360 
H    -1.6598173    4.5865231   -3.9135887 
H    -1.3365331    6.3203432   -3.6704614 
H    -0.3484570    5.1011755   -2.8121436 
H    -4.1084975    4.8777959   -3.2328117 
H    -3.7821353    6.6339711   -3.1174452 
H    -4.5310412    5.7704648   -1.7458793 
H    -1.8979833    7.4951458   -1.5861144 
H    -0.9651345    6.3383554   -0.5887766 
H    -2.6757629    6.6716814   -0.2104117 
H    -0.6322441   -2.0769094   -3.1877188 
H    -3.5482013   -3.5972732   -6.4008630 
H    -3.2205230   -4.3579065   -4.8186519 
H    -2.4892064   -5.0283598   -6.3053410 
H    -0.0246511   -2.2035947   -6.8699332 
H    -0.6053999   -3.7740071   -7.5041880 
H    -1.6352050   -2.3219986   -7.6311918 
H     0.4494172   -3.3915348   -4.6396330 
H    -0.2137881   -4.9026002   -5.3092966 
H    -0.8673412   -4.2542404   -3.7856643 
H    -3.3711661   -1.3565773   -6.4408196 
H    -3.0664706    1.4786138   -3.2041667 
H    -6.5070854    0.8455717   -6.2186803 
H    -5.6339203   -0.7115377   -6.1971421 
H    -6.1206813    0.0583708   -4.6590749 
H    -3.7973064    0.4343666   -7.6648424 
H    -2.9634297    1.8878895   -7.0468665 
H    -4.6701912    1.9851318   -7.5774227 
H    -5.0178809    2.2144427   -3.8601161 
H    -3.7182850    2.9699747   -4.8319928 
H    -5.3969726    2.9633117   -5.4313669 
