200
Energy =
C     0.8002735   -2.9579057    2.1265104 
C     0.7167909   -2.0209597    3.2024557 
C    -0.4861365   -1.3499056    3.5122319 
H     1.6405697   -1.6716600    3.6819055 
Pd    0.1190671   -0.9951098    1.3378686 
P    -0.4645920    1.2343230    0.9883399 
P     0.2174117   -1.4615247   -0.9440143 
H    -0.0841179   -3.5728078    1.9130440 
H    -1.4258115   -1.7784441    3.1268200 
C     4.5163013   -4.5682296    0.6540347 
C     3.3056741   -5.2379190    0.4269315 
C     2.1019529   -4.7109073    0.9112137 
C     2.0834729   -3.4986502    1.6358909 
C     3.3127096   -2.8310113    1.8540157 
C     4.5132519   -3.3614936    1.3743421 
H     5.4566258   -4.9818046    0.2753860 
H     3.2960079   -6.1798722   -0.1299908 
H     1.1611445   -5.2393677    0.7234167 
H     3.3279384   -1.8779540    2.3943335 
H     5.4527928   -2.8308492    1.5605206 
C    -0.9701518    1.5753190    6.6255509 
C    -1.8773069    1.5144481    5.5563177 
C    -1.7204025    0.5525542    4.5545628 
C    -0.6397480   -0.3576854    4.5897483 
C     0.2570690   -0.2970386    5.6801151 
C     0.0890653    0.6573340    6.6896361 
H    -1.0937970    2.3279694    7.4107565 
H    -2.7091023    2.2238991    5.4985163 
H    -2.4230735    0.5231130    3.7153469 
H     1.0701924   -1.0258006    5.7587223 
H     0.7814905    0.6765596    7.5375008 
C    -2.3256234    5.6709116    3.5483593 
C    -0.9608855    5.5314046    4.2568646 
C    -1.2107510    5.4555028    5.7846667 
C    -0.1075405    6.7852312    3.9332894 
C    -0.1953839    4.2761574    3.7934151 
C    -0.6855197    3.4330889    2.7815964 
C     1.0500951    3.9561188    4.3721042 
C     1.8044224    2.8255252    4.0010405 
C     3.2001126    2.5687407    4.6027611 
C     4.2076915    3.4841016    3.8571178 
C     3.2252884    2.9006342    6.1137590 
C     3.6383661    1.0973182    4.4240373 
C     1.2692821    1.9901713    3.0052510 
C     0.0486482    2.3046887    2.3826690 
C    -2.2414926    1.5247678    0.6934528 
C    -2.7115083    2.7440206    0.1664399 
C    -4.0857482    2.9470607   -0.0220476 
C    -4.6505293    4.2599661   -0.5963510 
C    -3.5317731    5.2653180   -0.9420914 
C    -5.5933583    4.9081379    0.4492673 
C    -5.4387836    3.9435382   -1.8932268 
C    -4.9665840    1.8948280    0.3234788 
C    -4.5245514    0.6621716    0.8323420 
C    -3.1371106    0.4952029    1.0091862 
C    -5.4738620   -0.4925291    1.2064370 
C    -5.0750607   -1.7610055    0.4099335 
C    -5.3391256   -0.7776580    2.7250720 
C    -6.9474010   -0.1610576    0.8949894 
C     0.4070250    1.9806164   -0.4607603 
C     1.4806149    2.8702921   -0.2527172 
C     2.1754395    3.4065746   -1.3428566 
C     1.8115414    3.0723021   -2.6515419 
C     0.0253367    1.6282493   -1.7786234 
C     0.7330581    2.2010838   -2.8646797 
C    -1.1315620    0.7429234   -2.1154873 
C    -2.2170012    1.3377498   -2.8041199 
O    -2.1590004    2.6913262   -3.0109104 
C    -2.2695323    3.2073781   -4.3567556 
C    -0.9390535    3.8416003   -4.7709755 
C     0.1573960    2.8339998   -5.1282263 
O     0.3293213    1.8194610   -4.1197165 
C    -3.3291229    0.5834902   -3.2065661 
C    -3.3512119   -0.7918347   -2.9561301 
C    -2.2815984   -1.4086989   -2.2957801 
C    -1.1719207   -0.6531416   -1.8663799 
C     1.7336530   -0.9346377   -1.8088612 
C     2.8256044   -0.4839930   -1.0502554 
C     4.0051439   -0.0591480   -1.6869195 
C     5.2292019    0.4463748   -0.8990190 
C     6.3479192   -0.6231420   -0.9936465 
C     4.8877545    0.6891548    0.5871141 
C     5.7369717    1.7811342   -1.4989628 
C     4.0472549   -0.1317231   -3.0927666 
C     2.9632431   -0.5717274   -3.8801723 
C     1.7918498   -0.9655259   -3.2142200 
C     3.0869812   -0.5984357   -5.4154392 
C     1.7623773   -1.0143591   -6.0892675 
C     4.1909198   -1.6102166   -5.8159840 
C     3.4687565    0.8158522   -5.9213785 
C     0.0032169   -3.2529775   -1.2746610 
C     0.8600183   -3.9713849   -2.1253704 
C     0.6575534   -5.3451134   -2.3485421 
C     1.5379304   -6.1368851   -3.3359028 
C     1.9017917   -7.5281062   -2.7616820 
C     2.8497110   -5.3876179   -3.6603773 
C     0.7279937   -6.3224719   -4.6467939 
C    -0.4173860   -5.9739505   -1.6842849 
C    -1.2792920   -5.2866226   -0.8082015 
C    -1.0456021   -3.9129304   -0.6117155 
C    -2.4615302   -5.9644500   -0.0883363 
C    -3.7804183   -5.4076696   -0.6857642 
C    -2.4461572   -7.4976839   -0.2600389 
C    -2.4039001   -5.6428689    1.4272632 
H    -2.8472893    6.5694659    3.9201894 
H    -2.9773725    4.7999371    3.7410160 
H    -2.2116648    5.7812713    2.4553779 
H    -1.7389055    6.3621631    6.1293921 
H    -1.8305153    4.5783651    6.0369437 
H    -0.2674617    5.3794326    6.3522511 
H    -0.6361358    7.7011237    4.2526888 
H     0.0860446    6.8570378    2.8485055 
H     0.8662095    6.7588567    4.4523068 
H    -1.6436179    3.6426257    2.3034419 
H     1.4491877    4.6188753    5.1456199 
H     5.2287880    3.3403271    4.2545611 
H     4.2210897    3.2527255    2.7770994 
H     3.9376489    4.5480398    3.9754910 
H     3.0359229    3.9698954    6.3078711 
H     2.4670403    2.3128123    6.6578728 
H     4.2182096    2.6640394    6.5342574 
H     2.9056470    0.4079735    4.8778583 
H     3.7613450    0.8267558    3.3613160 
H     4.6127288    0.9360358    4.9162091 
H     1.8048298    1.0898477    2.6858354 
H    -1.9892596    3.5110551   -0.1209484 
H    -2.8306668    4.8435669   -1.6822371 
H    -2.9578225    5.5604399   -0.0456185 
H    -3.9752848    6.1818215   -1.3680108 
H    -6.4386998    4.2457579    0.7041779 
H    -5.0453079    5.1358322    1.3807716 
H    -6.0112336    5.8514022    0.0544721 
H    -4.7754923    3.4598349   -2.6299966 
H    -5.8388598    4.8733404   -2.3353529 
H    -6.2907039    3.2683335   -1.7027559 
H    -6.0382377    2.0499836    0.1750892 
H    -2.7347080   -0.4546931    1.3790232 
H    -5.1547674   -1.5857126   -0.6762556 
H    -5.7344491   -2.6055631    0.6777780 
H    -4.0353129   -2.0652830    0.6231662 
H    -5.5915217    0.1185319    3.3182327 
H    -6.0197739   -1.5943636    3.0246163 
H    -4.3115344   -1.0824614    2.9919664 
H    -7.2998892    0.7137564    1.4690610 
H    -7.5875229   -1.0176353    1.1678491 
H    -7.0995563    0.0427563   -0.1796438 
H     1.7657300    3.1563568    0.7627956 
H     3.0066209    4.0974588   -1.1690185 
H     2.3621812    3.4818042   -3.5029321 
H    -2.5671318    2.3981874   -5.0491405 
H    -3.0684270    3.9689198   -4.3444335 
H    -1.1052798    4.4889223   -5.6526211 
H    -0.6009972    4.4985192   -3.9491762 
H     1.1120431    3.3547302   -5.3340430 
H    -0.1105884    2.2611714   -6.0309714 
H    -4.1659611    1.0795805   -3.7070094 
H    -4.2087490   -1.3923305   -3.2767883 
H    -2.3089919   -2.4879742   -2.1299027 
H     2.7283029   -0.4555184    0.0385900 
H     7.2389022   -0.3025595   -0.4239143 
H     5.9994666   -1.5881914   -0.5874648 
H     6.6536510   -0.7872782   -2.0416782 
H     4.6031939   -0.2459362    1.0979714 
H     5.7668430    1.0997916    1.1131854 
H     4.0578484    1.4100833    0.6954265 
H     4.9436119    2.5472547   -1.4726417 
H     6.6000747    2.1528762   -0.9188822 
H     6.0668910    1.6665221   -2.5454686 
H     4.9647248    0.1807408   -3.6019742 
H     0.9084390   -1.2779536   -3.7755660 
H     1.4642231   -2.0397631   -5.8059543 
H     0.9429495   -0.3261126   -5.8181563 
H     1.8804932   -0.9954041   -7.1865374 
H     4.3023775   -1.6415166   -6.9146550 
H     3.9371169   -2.6258435   -5.4650551 
H     5.1691896   -1.3364962   -5.3839708 
H     4.4434568    1.1463930   -5.5234399 
H     2.7063233    1.5502731   -5.6126933 
H     3.5368710    0.8231237   -7.0237929 
H     1.6915717   -3.4527438   -2.6043195 
H     2.4414303   -7.4354560   -1.8034022 
H     2.5530865   -8.0680364   -3.4708179 
H     1.0109978   -8.1563491   -2.5921672 
H     3.4772742   -6.0077503   -4.3231990 
H     2.6619517   -4.4342700   -4.1844062 
H     3.4275930   -5.1685710   -2.7451578 
H    -0.2090052   -6.8759658   -4.4603235 
H     1.3200526   -6.8876579   -5.3889833 
H     0.4643875   -5.3436947   -5.0853416 
H    -0.5831924   -7.0393691   -1.8566752 
H    -1.6889693   -3.3406049    0.0669844 
H    -3.8466428   -5.6348326   -1.7641147 
H    -4.6536823   -5.8600197   -0.1824081 
H    -3.8469895   -4.3127111   -0.5632537 
H    -3.2907896   -7.9423007    0.2938116 
H    -1.5139055   -7.9410032    0.1323645 
H    -2.5541386   -7.7932468   -1.3181960 
H    -2.5032216   -4.5603652    1.6241989 
H    -1.4518310   -5.9875419    1.8684566 
H    -3.2306680   -6.1488695    1.9559424 
