206
Energy =
C    -0.4989609   -3.7781143    0.5661942 
C    -1.8692679   -3.4452625    0.4570383 
C    -2.3866708   -2.9495547   -0.7821866 
H    -2.4933963   -3.4127081    1.3588272 
Pd   -0.7816474   -1.6031339   -0.0407329 
P    -0.9252767    0.1986946   -1.5002706 
P     0.8703177   -0.6148857    1.2749903 
H     0.0326615   -3.9669690   -0.3799735 
H    -1.9142017   -3.3216057   -1.7017920 
C     1.7239340   -5.1208705    3.9855106 
C     2.3408853   -4.9850364    2.7331531 
C     1.5961884   -4.5494201    1.6333215 
C     0.2226635   -4.2350403    1.7605304 
C    -0.3816789   -4.3681117    3.0315589 
C     0.3626065   -4.8063413    4.1305304 
H     2.3012237   -5.4739527    4.8459215 
H     3.4028313   -5.2226971    2.6113094 
H     2.0813798   -4.4433629    0.6582192 
H    -1.4414150   -4.1320776    3.1627117 
H    -0.1209175   -4.9007159    5.1078458 
C    -6.3964146   -1.4834622   -1.3595676 
C    -5.8147931   -1.4371393   -0.0813318 
C    -4.5098945   -1.8983659    0.1192346 
C    -3.7583187   -2.4334666   -0.9535275 
C    -4.3545546   -2.4665190   -2.2333958 
C    -5.6575986   -1.9976979   -2.4348446 
H    -7.4171245   -1.1183472   -1.5134578 
H    -6.3822760   -1.0324814    0.7628490 
H    -4.0637930   -1.8296006    1.1173567 
H    -3.7853628   -2.8634194   -3.0784535 
H    -6.0955648   -2.0385145   -3.4376985 
C    -2.7295346   -2.8035726    6.0959600 
C    -2.4986777   -1.4875556    5.3104271 
C    -3.5250889   -1.4339704    4.1591419 
C    -2.7349557   -0.2740558    6.2462977 
C    -1.0476939   -1.4354483    4.7930532 
C    -0.7340035   -1.1671081    3.4509478 
C     0.0264302   -1.6491460    5.6807213 
C     1.3733497   -1.6534739    5.2715966 
C     2.4997133   -1.8564292    6.3043278 
C     2.6242791   -0.5502591    7.1330736 
C     2.1710046   -3.0333471    7.2554372 
C     3.8553495   -2.1454828    5.6231964 
C     1.6494373   -1.3994052    3.9139267 
C     0.6070108   -1.1276094    3.0167829 
C     2.5781762   -1.0102331    0.7661011 
C     2.7441284   -1.8923322   -0.3148944 
C     4.0255167   -2.2586515   -0.7535700 
C     4.2416511   -3.2249857   -1.9340588 
C     5.1943776   -2.5772757   -2.9703302 
C     2.9136810   -3.5641237   -2.6462737 
C     4.8709169   -4.5365216   -1.3975723 
C     5.1267582   -1.7234239   -0.0548895 
C     4.9953066   -0.8141572    1.0147236 
C     3.6952110   -0.4436691    1.4039001 
C     6.2457292   -0.3032162    1.7577018 
C     7.3234196    0.1740234    0.7532818 
C     5.9096864    0.8714876    2.7019170 
C     6.8151612   -1.4767144    2.5984542 
C     0.8123630    1.2260530    1.3667289 
C     0.4308206    1.8755401    2.5574606 
C     0.3775105    3.2725818    2.5997471 
C     0.7036578    4.0362086    1.4746665 
C     1.1391897    1.9777565    0.2139096 
C     1.0924647    3.3944084    0.2852226 
C     1.6232835    1.3738754   -1.0647470 
C     2.9829182    1.6093954   -1.4039383 
O     3.7117410    2.2835986   -0.4694853 
C     4.9364256    2.9216363   -0.8757634 
C     4.6927360    4.1520656   -1.7648856 
C     4.4715255    5.4719604   -1.0041710 
C     3.2522476    5.5532629   -0.0675229 
C     1.8829261    5.4236289   -0.7566794 
O     1.4331366    4.0582368   -0.8584393 
C     3.5080568    1.1507364   -2.6248404 
C     2.6757021    0.4737290   -3.5214973 
C     1.3338764    0.2328912   -3.2109626 
C     0.8016221    0.6695372   -1.9801052 
C    -1.7381578    1.7267263   -0.9252385 
C    -2.5417014    1.6909532    0.2210873 
C    -3.2531193    2.8382493    0.6323984 
C    -4.1133632    2.7877171    1.9108993 
C    -4.9032121    4.0929132    2.1387987 
C    -3.1841576    2.5564297    3.1293055 
C    -5.1222046    1.6179627    1.8017759 
C    -3.1375629    3.9918998   -0.1605316 
C    -2.3311791    4.0566909   -1.3207565 
C    -1.6159130    2.9082421   -1.6850052 
C    -2.2981411    5.3471663   -2.1613773 
C    -1.2571490    5.2636441   -3.2978896 
C    -3.7016452    5.5606555   -2.7872158 
C    -1.9471882    6.5566079   -1.2594530 
C    -1.7682564   -0.2575002   -3.0660293 
C    -1.3800946   -1.4549009   -3.7066433 
C    -1.9965363   -1.8656487   -4.8963559 
C    -1.5757928   -3.1473195   -5.6423475 
C    -2.7944189   -4.0963526   -5.7740728 
C    -1.0646314   -2.7598131   -7.0541364 
C    -0.4489651   -3.9028383   -4.9062089 
C    -3.0421397   -1.0612224   -5.4086837 
C    -3.4724030    0.1169885   -4.7780142 
C    -2.8117080    0.5101635   -3.5946212 
C    -4.5834330    1.0180027   -5.3518805 
C    -5.3973187    0.3035474   -6.4511540 
C    -3.9091747    2.2767840   -5.9601374 
C    -5.5581366    1.4561910   -4.2290330 
H    -2.5546013   -3.6834036    5.4517097 
H    -2.0640305   -2.8855351    6.9717190 
H    -3.7700199   -2.8493832    6.4627487 
H    -3.3882897   -2.2779069    3.4592452 
H    -3.4598169   -0.4935355    3.5873221 
H    -4.5483521   -1.5012468    4.5663419 
H    -3.7675751   -0.2847193    6.6390528 
H    -2.0433140   -0.2904179    7.1064285 
H    -2.5800162    0.6739228    5.7024335 
H    -1.5268616   -0.9809677    2.7182263 
H    -0.1985552   -1.8322829    6.7357785 
H     3.4250163   -0.6474176    7.8881741 
H     1.6811774   -0.3217989    7.6597818 
H     2.8653856    0.3064300    6.4791737 
H     1.2547792   -2.8507823    7.8421345 
H     2.9966807   -3.1786637    7.9738651 
H     2.0348268   -3.9712802    6.6917361 
H     3.7949335   -3.0258002    4.9593620 
H     4.2053912   -1.2862708    5.0250813 
H     4.6235107   -2.3446966    6.3899866 
H     2.6779698   -1.4070032    3.5506517 
H     1.8482673   -2.2672073   -0.8173018 
H     5.3460890   -3.2579279   -3.8267757 
H     6.1858299   -2.3605307   -2.5371382 
H     4.7710335   -1.6305182   -3.3469215 
H     3.1091241   -4.2242021   -3.5087515 
H     2.2118873   -4.0972575   -1.9794188 
H     2.4128364   -2.6533183   -3.0191713 
H     4.2052488   -5.0197616   -0.6601756 
H     5.8403307   -4.3462103   -0.9052305 
H     5.0431197   -5.2485939   -2.2244517 
H     6.1338371   -2.0219213   -0.3636015 
H     3.5390868    0.2937264    2.1943824 
H     8.2093371    0.5448467    1.2980482 
H     6.9398141    0.9931237    0.1221245 
H     7.6618291   -0.6390617    0.0889796 
H     5.4344564    1.7045688    2.1545556 
H     5.2303959    0.5643719    3.5163842 
H     6.8340524    1.2497037    3.1712939 
H     7.7110283   -1.1518789    3.1577285 
H     6.0656214   -1.8391086    3.3233937 
H     7.1028947   -2.3256816    1.9538632 
H     0.1897540    1.2944682    3.4505450 
H     0.0868446    3.7769485    3.5270045 
H     0.6621081    5.1263598    1.5298534 
H     5.5925398    2.1856697   -1.3748935 
H     5.4239053    3.2007404    0.0726497 
H     5.5730263    4.2792501   -2.4217233 
H     3.8399362    3.9354761   -2.4353677 
H     5.3782950    5.6875922   -0.4067053 
H     4.3997245    6.2902049   -1.7462829 
H     3.3160160    4.7894556    0.7299080 
H     3.2830101    6.5321926    0.4453443 
H     1.1174165    6.0308152   -0.2403500 
H     1.9210332    5.7735068   -1.8012669 
H     4.5538610    1.3273201   -2.8850363 
H     3.0783565    0.1355088   -4.4819020 
H     0.6977128   -0.2750292   -3.9385324 
H    -2.6053183    0.7570511    0.7906104 
H    -5.5096052    4.0032867    3.0567060 
H    -4.2331540    4.9611408    2.2675022 
H    -5.5915741    4.3042611    1.3016073 
H    -3.7810808    2.4552470    4.0535087 
H    -2.4877141    3.4024759    3.2541349 
H    -2.5758608    1.6434717    3.0099572 
H    -5.7494028    1.5676309    2.7098214 
H    -4.6091912    0.6490851    1.6919949 
H    -5.7832156    1.7467211    0.9272989 
H    -3.6964105    4.8854110    0.1276055 
H    -0.9609482    2.9088425   -2.5594075 
H    -1.5104482    4.4728213   -4.0259140 
H    -1.2263660    6.2204243   -3.8471106 
H    -0.2470463    5.0573211   -2.9041661 
H    -3.9758586    4.7076792   -3.4326494 
H    -3.7125554    6.4778338   -3.4030917 
H    -4.4792108    5.6628473   -2.0102868 
H    -1.9052362    7.4816218   -1.8612417 
H    -0.9652215    6.4120152   -0.7777269 
H    -2.6960526    6.7103465   -0.4639340 
H    -0.5897293   -2.0626348   -3.2566892 
H    -3.6279074   -3.6202019   -6.3179092 
H    -3.1663665   -4.4026399   -4.7801863 
H    -2.5095269   -5.0087050   -6.3274604 
H    -0.1965079   -2.0809266   -6.9831331 
H    -0.7545650   -3.6623924   -7.6104831 
H    -1.8464119   -2.2513421   -7.6439705 
H     0.4642589   -3.2894629   -4.8110243 
H    -0.1814226   -4.8131814   -5.4696861 
H    -0.7608785   -4.2196838   -3.8943265 
H    -3.5357716   -1.3788567   -6.3305397 
H    -3.1207524    1.4227569   -3.0801097 
H    -6.2068629    0.9648779   -6.8048992 
H    -4.7760481    0.0491248   -7.3275379 
H    -5.8594518   -0.6251918   -6.0710273 
H    -3.2165730    1.9983339   -6.7735162 
H    -3.3321297    2.8259613   -5.1950479 
H    -4.6719480    2.9619134   -6.3718930 
H    -6.0094450    0.5821075   -3.7301141 
H    -5.0562278    2.0634282   -3.4561345 
H    -6.3685643    2.0720937   -4.6569718 
