200
Energy =
C     0.8006789   -2.8560728    2.2551869 
C     0.6706968   -1.8537578    3.2729065 
C    -0.5790634   -1.2308767    3.4919930 
H     1.5667865   -1.4447197    3.7556442 
Pd    0.1256271   -0.9622658    1.3410790 
P    -0.3342738    1.2854765    0.9747910 
P     0.1300384   -1.5093288   -0.9233343 
H    -0.0647765   -3.5067303    2.0724990 
H    -1.4644786   -1.7689295    3.1165563 
C     4.5373743   -4.3960246    0.7627359 
C     4.5218561   -3.2062453    1.5101094 
C     3.3168441   -2.7003761    2.0063478 
C     2.0951786   -3.3799976    1.7800002 
C     2.1269763   -4.5797707    1.0329102 
C     3.3343628   -5.0777981    0.5284287 
H     5.4810360   -4.7880578    0.3697647 
H     5.4556805   -2.6673161    1.7017927 
H     3.3245235   -1.7576541    2.5634734 
H     1.1922444   -5.1178616    0.8406239 
H     3.3350827   -6.0073192   -0.0493096 
C    -1.6282255    2.0052883    6.1112235 
C    -2.5932994    1.3948296    5.2962564 
C    -2.2280457    0.3379014    4.4581050 
C    -0.8930508   -0.1292161    4.4100000 
C     0.0681331    0.5002851    5.2337852 
C    -0.2981388    1.5559819    6.0737648 
H    -1.9120194    2.8265705    6.7769022 
H    -3.6322083    1.7402018    5.3159053 
H    -2.9833332   -0.1352394    3.8228191 
H     1.1075275    0.1612109    5.2229260 
H     0.4590476    2.0348339    6.7022341 
C    -0.0835450    5.6360686    5.9022635 
C    -0.3153617    5.4962162    4.3777684 
C     0.3285777    6.7061289    3.6500701 
C    -1.8385035    5.5065838    4.1160865 
C     0.3469011    4.2139870    3.8360406 
C    -0.2888254    3.4098380    2.8711325 
C     1.6441726    3.8490381    4.2446140 
C     2.3100067    2.7033927    3.7630491 
C     3.7243967    2.3542812    4.2674832 
C     3.7976420    2.4881988    5.8088510 
C     4.1276443    0.9105258    3.8978903 
C     4.7288589    3.3364505    3.6101587 
C     1.6488872    1.9289119    2.7954901 
C     0.3685769    2.2947648    2.3325540 
C    -2.0948627    1.7101971    0.7748548 
C    -2.5009360    2.9835376    0.3397656 
C    -3.8666942    3.2724549    0.1838745 
C    -4.3647043    4.6460438   -0.3031294 
C    -5.1995940    5.3100748    0.8210979 
C    -5.2435374    4.4460248   -1.5644101 
C    -3.1944952    5.5818181   -0.6734048 
C    -4.7932743    2.2482703    0.4710092 
C    -4.4128051    0.9518447    0.8700848 
C    -3.0396185    0.7006253    1.0190722 
C    -5.4740150   -0.1303377    1.1471778 
C    -4.8343680   -1.5281179    1.3024228 
C    -6.2174076    0.2336695    2.4582769 
C    -6.4872041   -0.1954372   -0.0228615 
C     0.4980877    1.9412478   -0.5379902 
C     1.6295553    2.7751265   -0.4355813 
C     2.2791584    3.2278873   -1.5903859 
C     1.8060328    2.8724447   -2.8579676 
C     0.0102578    1.5631360   -1.8130480 
C     0.6661913    2.0611666   -2.9648585 
C    -1.2101459    0.7269403   -2.0353843 
C    -2.3226385    1.3623008   -2.6386431 
O    -2.2205908    2.7078357   -2.8792084 
C    -2.3977279    3.1968423   -4.2284121 
C    -1.0701622    3.7464266   -4.7583183 
C    -0.0616030    2.6761269   -5.1860599 
O     0.1470713    1.6716220   -4.1744609 
C    -3.4977787    0.6532040   -2.9303069 
C    -3.5556763   -0.7182931   -2.6623240 
C    -2.4603341   -1.3754675   -2.0877986 
C    -1.2880921   -0.6636003   -1.7631973 
C     1.5942922   -1.0886142   -1.9222357 
C     1.5304554   -1.1654474   -3.3257149 
C     2.6572037   -0.8501931   -4.1007004 
C     2.6478031   -0.9275526   -5.6390489 
C     3.6544299   -2.0143298   -6.0956504 
C     3.0641151    0.4465840   -6.2223536 
C     1.2490851   -1.2825772   -6.1858397 
C     3.8242879   -0.4429055   -3.4219064 
C     3.9065366   -0.3280112   -2.0208614 
C     2.7670627   -0.6737018   -1.2721561 
C     5.2175748    0.1324566   -1.3551847 
C     4.9993091    0.4990099    0.1283301 
C     5.7807824    1.3799870   -2.0797010 
C     6.2416603   -1.0287767   -1.4439107 
C    -0.1763310   -3.3030416   -1.1471533 
C    -1.1998692   -3.8840069   -0.3790696 
C    -1.4734791   -5.2621752   -0.4554879 
C    -2.6259151   -5.8522907    0.3807729 
C    -2.6579160   -7.3935795    0.3221558 
C    -3.9654160   -5.3029427   -0.1760618 
C    -2.4693989   -5.4231566    1.8624927 
C    -0.6758749   -6.0354572   -1.3206140 
C     0.3712230   -5.4857194   -2.0919600 
C     0.6134354   -4.1043281   -1.9897601 
C     1.1845947   -6.3830475   -3.0457958 
C     1.6464195   -7.6704530   -2.3184844 
C     0.2709493   -6.7692585   -4.2390500 
C     2.4347557   -5.6578529   -3.5904595 
H    -0.5920736    6.5407783    6.2785334 
H     0.9860886    5.7343564    6.1539330 
H    -0.4841566    4.7635771    6.4454712 
H    -0.1156027    7.6525767    4.0075323 
H     1.4168402    6.7459797    3.8327875 
H     0.1684746    6.6371081    2.5595206 
H    -2.2881133    6.4046833    4.5732904 
H    -2.3274521    4.6169139    4.5505213 
H    -2.0736361    5.5361175    3.0375124 
H    -1.2964108    3.6515815    2.5291106 
H     2.1550795    4.4775312    4.9794269 
H     4.8051339    2.2102395    6.1646029 
H     3.6015997    3.5189061    6.1486622 
H     3.0656087    1.8214061    6.2982081 
H     3.4212961    0.1751015    4.3238126 
H     4.1728795    0.7581338    2.8074849 
H     5.1287239    0.6858852    4.3037420 
H     4.7064822    3.2380260    2.5102007 
H     4.4856078    4.3827703    3.8643741 
H     5.7575209    3.1285180    3.9557859 
H     2.1217306    1.0326865    2.3790795 
H    -1.7411809    3.7285397    0.0939849 
H    -4.5852603    5.4617278    1.7263499 
H    -6.0696187    4.6906917    1.1008040 
H    -5.5766875    6.2940818    0.4896360 
H    -4.6665561    3.9287720   -2.3497201 
H    -6.1431624    3.8445274   -1.3488085 
H    -5.5795270    5.4222960   -1.9566917 
H    -2.5541956    5.8022461    0.1994541 
H    -3.5901356    6.5431925   -1.0439830 
H    -2.5647329    5.1397658   -1.4651301 
H    -5.8602114    2.4663420    0.3572387 
H    -2.6749168   -0.2908784    1.3002071 
H    -4.2466735   -1.7987737    0.4075258 
H    -5.6219502   -2.2889908    1.4380716 
H    -4.1698831   -1.5863856    2.1832438 
H    -6.7129041    1.2166468    2.3756440 
H    -6.9900586   -0.5216940    2.6884486 
H    -5.5142616    0.2795347    3.3090270 
H    -7.0367256    0.7529779   -0.1467816 
H    -7.2330995   -0.9880927    0.1640535 
H    -5.9712007   -0.4185070   -0.9722789 
H     1.9973486    3.0817466    0.5468566 
H     3.1604183    3.8711237   -1.4995773 
H     2.3175582    3.2198922   -3.7598618 
H    -2.7907241    2.3900722   -4.8745701 
H    -3.1498252    4.0030961   -4.1801571 
H    -1.2710160    4.3904009   -5.6352438 
H    -0.6313360    4.3946772   -3.9781220 
H     0.8966389    3.1432386   -5.4837251 
H    -0.4354264    2.1028766   -6.0501473 
H    -4.3533220    1.1809584   -3.3622398 
H    -4.4609741   -1.2847854   -2.9036694 
H    -2.5157417   -2.4520013   -1.9082590 
H     0.5887547   -1.4521224   -3.7993015 
H     3.6701918   -2.0842789   -7.1980767 
H     4.6796701   -1.7865068   -5.7557217 
H     3.3740604   -3.0024097   -5.6902477 
H     4.0863427    0.7306014   -5.9190008 
H     3.0382320    0.4178924   -7.3262423 
H     2.3729156    1.2333042   -5.8764681 
H     0.4959573   -0.5405735   -5.8679371 
H     1.2736023   -1.2989913   -7.2892497 
H     0.9191373   -2.2808282   -5.8468971 
H     4.7085793   -0.1928555   -4.0165332 
H     2.7668958   -0.6135233   -0.1803155 
H     4.2349044    1.2891200    0.2370535 
H     4.6815139   -0.3753675    0.7197318 
H     5.9413586    0.8713239    0.5669816 
H     6.6992013    1.7274860   -1.5744926 
H     5.0452793    2.2027866   -2.0696894 
H     6.0435664    1.1684505   -3.1300202 
H     6.4492927   -1.2947322   -2.4952158 
H     5.8539460   -1.9285642   -0.9355066 
H     7.1965774   -0.7402149   -0.9682391 
H    -1.7866958   -3.2468767    0.2934304 
H    -2.8349928   -7.7613971   -0.7035464 
H    -3.4788361   -7.7726285    0.9547606 
H    -1.7152146   -7.8336988    0.6924071 
H    -4.8164168   -5.6969779    0.4079701 
H    -3.9999816   -4.2007541   -0.1247011 
H    -4.1018786   -5.6003483   -1.2304392 
H    -1.5015806   -5.7626086    2.2721748 
H    -3.2754979   -5.8648995    2.4741530 
H    -2.5302306   -4.3265927    1.9834286 
H    -0.8700060   -7.1075031   -1.3985267 
H     1.4251015   -3.6426455   -2.5540162 
H     0.7954665   -8.2800314   -1.9701604 
H     2.2424673   -8.2976747   -3.0042174 
H     2.2728855   -7.4290714   -1.4424988 
H     0.8177718   -7.4162062   -4.9483258 
H    -0.0666871   -5.8681511   -4.7807238 
H    -0.6245988   -7.3168918   -3.8968390 
H     3.0956873   -5.3184011   -2.7732560 
H     2.1672882   -4.7795931   -4.2038619 
H     3.0116174   -6.3448783   -4.2330444 
