197
Energy =
C    -0.7196605   -3.1429931    1.6656313 
C    -0.6042141   -3.6612020    0.3343789 
C     0.6342628   -3.5965670   -0.3440936 
H    -1.5067966   -3.9428097   -0.2218673 
Pd   -0.0698391   -1.5295885    0.3023948 
P     0.3519934   -0.2461160   -1.5919552 
P    -0.0955738    0.2984313    1.7351470 
H     0.1575717   -3.2336769    2.3197714 
H     1.5301181   -3.4629692    0.2837978 
C    -4.4258276   -2.4682565    3.7560991 
C    -4.4336042   -2.6454341    2.3621243 
C    -3.2384290   -2.8709848    1.6729075 
C    -2.0039370   -2.9403660    2.3629389 
C    -2.0120209   -2.7667995    3.7658490 
C    -3.2096376   -2.5304007    4.4516873 
H    -5.3619206   -2.2860396    4.2938496 
H    -5.3780237   -2.6015121    1.8095847 
H    -3.2635644   -2.9785821    0.5837278 
H    -1.0668270   -2.8093920    4.3181014 
H    -3.1920619   -2.3971996    5.5378666 
C     1.6116544   -4.7652562   -4.3578438 
C     2.5902462   -4.2344920   -3.5035901 
C     2.2483320   -3.8581520   -2.2017383 
C     0.9237853   -4.0020791   -1.7247140 
C    -0.0525005   -4.5270585   -2.6018811 
C     0.2901247   -4.9028990   -3.9038184 
H     1.8772293   -5.0726555   -5.3743989 
H     3.6219114   -4.1171380   -3.8512157 
H     3.0138984   -3.4434515   -1.5377197 
H    -1.0849155   -4.6514285   -2.2639378 
H    -0.4783936   -5.3071874   -4.5698670 
C    -6.1848876    0.9595958    1.7365604 
C    -5.2254631    1.3735620    0.5901835 
C    -5.8483903    2.5431669   -0.2107131 
C    -5.0434076    0.1786303   -0.3706548 
C    -3.8847702    1.8002415    1.2184361 
C    -2.7526955    0.9641865    1.2002748 
C    -3.7655110    3.0444678    1.8662316 
C    -2.5715761    3.4971816    2.4661222 
C    -2.5184747    4.8882369    3.1250583 
C    -1.1079000    5.2154426    3.6585365 
C    -3.5212428    4.9278507    4.3061572 
C    -2.8993185    5.9616591    2.0728190 
C    -1.4574882    2.6459289    2.4177217 
C    -1.5552024    1.3867853    1.7963525 
C     0.2439990   -0.2296188    3.4578764 
C    -0.5296846    0.2166817    4.5431990 
C    -0.2674201   -0.2469744    5.8442600 
C    -1.0660635    0.2624893    7.0602823 
C    -1.4980765   -0.9211665    7.9612521 
C    -0.1490846    1.2160368    7.8712261 
C    -2.3340706    1.0338653    6.6321975 
C     0.7862518   -1.1702733    6.0206915 
C     1.5678565   -1.6489079    4.9519156 
C     1.2714257   -1.1661539    3.6637230 
C     2.7200595   -2.6565489    5.1336653 
C     2.8189049   -3.1730531    6.5838716 
C     4.0532071   -1.9563678    4.7621290 
C     2.4972360   -3.8709893    4.1954791 
C     1.3070756    1.4201417    1.2822261 
C     2.5005521    1.3954336    2.0293343 
C     3.5861365    2.2049165    1.6729726 
C     3.4776955    3.0812594    0.5906038 
C     1.1886104    2.2896095    0.1626718 
C     2.2751338    3.1457828   -0.1288741 
C    -0.0425306    2.4110280   -0.6774204 
C    -0.7335039    3.6444377   -0.6726853 
O    -0.2445275    4.6905044    0.0871199 
C     0.4352039    5.7113884   -0.6746732 
C     1.9328053    5.4159556   -0.7330088 
O     2.1538835    4.0556988   -1.1584160 
C    -1.9187395    3.8253228   -1.4008027 
C    -2.3966260    2.7912387   -2.2097026 
C    -1.6952983    1.5818327   -2.2870501 
C    -0.5285114    1.3782322   -1.5251104 
C     2.0897877    0.1688515   -1.9591467 
C     3.0806739   -0.4431865   -1.1700152 
C     4.4378190   -0.1707239   -1.3882329 
C     5.5474416   -0.8410377   -0.5555140 
C     6.2792001   -1.8718577   -1.4537856 
C     4.9725893   -1.5712757    0.6788141 
C     6.5580027    0.2222470   -0.0574674 
C     4.7652522    0.7244471   -2.4311590 
C     3.7980006    1.3658435   -3.2274408 
C     2.4415959    1.0830674   -2.9643248 
C     4.1673821    2.3446703   -4.3610968 
C     3.6012824    1.8020581   -5.6987932 
C     5.6936888    2.5120929   -4.5124318 
C     3.5497276    3.7351177   -4.0666672 
C    -0.3729093   -1.0952486   -3.0465551 
C     0.2672415   -1.1683718   -4.2915836 
C    -0.3756406   -1.7755719   -5.3890963 
C     0.2769071   -1.7944857   -6.7857989 
C    -0.0992654   -3.0782982   -7.5635330 
C     1.8180233   -1.7212621   -6.6916201 
C    -0.2407127   -0.5555508   -7.5641030 
C    -1.6653980   -2.3007571   -5.1866705 
C    -2.3166597   -2.2859556   -3.9358487 
C    -1.6449210   -1.6783581   -2.8633845 
C    -3.7278545   -2.8884609   -3.7864696 
C    -3.8118266   -4.2605243   -4.5002830 
C    -4.1094914   -3.1004032   -2.3057834 
C    -4.7421779   -1.9052116   -4.4270197 
H    -7.1601030    0.6374975    1.3283804 
H    -5.7566347    0.1265384    2.3207330 
H    -6.3630142    1.8030479    2.4264061 
H    -6.7853151    2.2131037   -0.6929210 
H    -6.0969712    3.4036239    0.4331082 
H    -5.1570492    2.8923871   -0.9970135 
H    -6.0070856   -0.0717583   -0.8471483 
H    -4.6945476   -0.7213538    0.1619277 
H    -4.3168114    0.4136652   -1.1688255 
H    -2.7798882   -0.0154093    0.7153219 
H    -4.6404743    3.7011334    1.8964602 
H    -1.1056674    6.2236374    4.1077668 
H    -0.7906745    4.5028734    4.4410846 
H    -0.3615378    5.2003874    2.8453378 
H    -3.5015893    5.9197315    4.7919378 
H    -3.2644384    4.1665858    5.0641114 
H    -4.5553082    4.7370817    3.9701289 
H    -2.1952007    5.9240621    1.2243470 
H    -2.8577137    6.9691724    2.5240340 
H    -3.9215995    5.8112639    1.6844127 
H    -0.4984182    2.9583722    2.8370550 
H    -1.3446471    0.9187911    4.3614754 
H    -2.1246843   -1.6377156    7.4024583 
H    -2.0853382   -0.5475279    8.8181869 
H    -0.6335440   -1.4715250    8.3695216 
H     0.1668048    2.0743461    7.2524595 
H     0.7593920    0.6954538    8.2215593 
H    -0.6845666    1.6041783    8.7561601 
H    -2.9008082    1.3412443    7.5277425 
H    -2.0896584    1.9504557    6.0669777 
H    -2.9962799    0.4096826    6.0061754 
H     0.9979285   -1.5294125    7.0301627 
H     1.8440291   -1.5269962    2.8006696 
H     3.0291333   -2.3559786    7.2959159 
H     3.6438425   -3.9017176    6.6634352 
H     1.8901598   -3.6803226    6.8993002 
H     4.0452660   -1.6012791    3.7167096 
H     4.2342042   -1.0865555    5.4174171 
H     4.9001586   -2.6566614    4.8746801 
H     1.5302675   -4.3610635    4.4058852 
H     2.5095112   -3.5754407    3.1309452 
H     3.2994070   -4.6161990    4.3381018 
H     2.5811158    0.7524956    2.9090628 
H     4.5108486    2.1621214    2.2573509 
H     4.3050078    3.7346109    0.2980556 
H     0.0067390    5.7579171   -1.6923001 
H     0.2524591    6.6733040   -0.1652279 
H     2.4007885    5.5754223    0.2556115 
H     2.4240468    6.0729956   -1.4714832 
H    -2.4429063    4.7827489   -1.3291322 
H    -3.3107096    2.9289041   -2.7960320 
H    -2.0556069    0.7933450   -2.9524934 
H     2.7609602   -1.1155267   -0.3694536 
H     6.7319287   -1.3836974   -2.3342728 
H     5.5766906   -2.6429331   -1.8176889 
H     7.0843286   -2.3752985   -0.8890705 
H     4.3943316   -0.8810835    1.3180575 
H     4.3148642   -2.4125065    0.3947552 
H     5.7947604   -1.9907752    1.2835809 
H     7.0634488    0.7348538   -0.8932188 
H     7.3395613   -0.2559777    0.5589179 
H     6.0499348    0.9864527    0.5552456 
H     5.8210161    0.9326705   -2.6188125 
H     1.6527623    1.5862038   -3.5332109 
H     3.8557231    2.4872591   -6.5268062 
H     4.0249279    0.8093483   -5.9306434 
H     2.5016563    1.7080187   -5.6684046 
H     6.1522862    2.9237476   -3.5959660 
H     5.9086714    3.2146301   -5.3359119 
H     6.1904139    1.5553298   -4.7523026 
H     3.7938575    4.4358068   -4.8852337 
H     2.4520872    3.6850187   -3.9710383 
H     3.9411776    4.1435726   -3.1203170 
H     1.2683150   -0.7475808   -4.4040183 
H     0.1847901   -3.9826727   -6.9981776 
H     0.4294092   -3.0964551   -8.5321944 
H    -1.1790886   -3.1345966   -7.7829313 
H     2.2199115   -2.5372962   -6.0672954 
H     2.2569523   -1.8067442   -7.7005394 
H     2.1619917   -0.7641275   -6.2671675 
H    -1.3401334   -0.5822475   -7.6638883 
H     0.1984608   -0.5248166   -8.5775371 
H     0.0318024    0.3775420   -7.0397298 
H    -2.1825372   -2.7550407   -6.0355483 
H    -2.1020943   -1.6400739   -1.8684392 
H    -4.8162799   -4.6969881   -4.3617049 
H    -3.0711878   -4.9675241   -4.0860939 
H    -3.6362582   -4.1784717   -5.5859371 
H    -4.1459961   -2.1518496   -1.7456921 
H    -5.1098984   -3.5607686   -2.2386780 
H    -3.3958650   -3.7766150   -1.8012196 
H    -5.7696872   -2.3047541   -4.3529066 
H    -4.5139558   -1.7385922   -5.4941126 
H    -4.7130687   -0.9270423   -3.9146357 
