200
Energy =
C     3.4261345    0.3299306    1.4905082 
C     3.3914447    1.6283131    0.8912936 
C     2.4599154    2.6002302    1.3202616 
H     3.9683464    1.8153552   -0.0233133 
Pd    1.4126035    0.6927093    0.6302950 
P    -0.4327570    1.5443912   -0.5033332 
P     0.4624738   -1.4225576    0.8679823 
H     3.1782541    0.2591207    2.5581244 
H     1.9965611    2.4470076    2.3084383 
C     5.7674669   -2.9590462   -0.0131848 
C     5.3755767   -2.9143630    1.3325622 
C     4.6102917   -1.8441686    1.8109225 
C     4.2288540   -0.7870083    0.9553863 
C     4.6271741   -0.8469044   -0.4015119 
C     5.3883870   -1.9181662   -0.8782093 
H     6.3641565   -3.7969504   -0.3881429 
H     5.6693812   -3.7147900    2.0192669 
H     4.3002926   -1.8240988    2.8605771 
H     4.3259002   -0.0530574   -1.0942463 
H     5.6883378   -1.9437270   -1.9311801 
C     1.9122704    6.5703002   -0.2305267 
C     3.0483693    5.8335882   -0.5986769 
C     3.2403010    4.5381343   -0.1075589 
C     2.2997027    3.9547623    0.7706225 
C     1.1690279    4.7165332    1.1470962 
C     0.9739675    6.0068611    0.6479404 
H     1.7661826    7.5836197   -0.6185342 
H     3.7954489    6.2774314   -1.2642385 
H     4.1446012    3.9885296   -0.3859387 
H     0.4278177    4.2805227    1.8233747 
H     0.0851332    6.5739096    0.9422323 
C     3.4140887   -3.6507364   -4.0800748 
C     2.2011704   -2.6850774   -4.0515480 
C     1.3661816   -2.8590626   -5.3444913 
C     2.7170750   -1.2310103   -4.0082347 
C     1.3432014   -3.0180475   -2.8158408 
C     1.2931022   -2.1779552   -1.6891178 
C     0.5937899   -4.2097378   -2.7738313 
C    -0.2243635   -4.5733391   -1.6843389 
C    -1.0210243   -5.8909400   -1.7207690 
C    -1.8973876   -5.9276611   -2.9982080 
C    -0.0223232   -7.0768184   -1.7355555 
C    -1.9459527   -6.0356975   -0.4938204 
C    -0.2738577   -3.6989728   -0.5878661 
C     0.4951245   -2.5208456   -0.5870303 
C     1.2338349   -2.3605617    2.2433062 
C     1.4720278   -1.6749419    3.4540967 
C     2.0852155   -2.3212278    4.5360960 
C     2.3814743   -1.6013917    5.8660207 
C     3.9105477   -1.6218103    6.1229151 
C     1.6482388   -2.3346317    7.0182945 
C     1.9115180   -0.1311805    5.8474588 
C     2.4526384   -3.6783677    4.3699678 
C     2.2280829   -4.3874682    3.1785550 
C     1.6186922   -3.6986958    2.1081466 
C     2.5554229   -5.8856043    3.0200926 
C     3.2513316   -6.1542981    1.6620210 
C     3.4731344   -6.4005710    4.1488303 
C     1.2148343   -6.6676130    3.0636855 
C    -1.3283393   -1.3010904    1.3246633 
C    -1.7449924   -1.5458084    2.6480528 
C    -3.0943132   -1.4230850    3.0027463 
C    -4.0467715   -1.0566276    2.0469939 
C    -2.2829822   -0.9384811    0.3393637 
C    -3.6423238   -0.8347153    0.7219132 
C    -1.9684694   -0.7595199   -1.1115980 
C    -2.5269329   -1.7037655   -2.0090004 
O    -3.2497038   -2.7250100   -1.4441586 
C    -4.5277486   -3.0629387   -2.0168395 
C    -5.5370461   -1.9150544   -1.9223872 
C    -5.6757662   -1.3085979   -0.5232231 
O    -4.5371135   -0.4616393   -0.2469817 
C    -2.3031063   -1.6149091   -3.3907840 
C    -1.5426314   -0.5551382   -3.8959657 
C    -1.0010553    0.4053882   -3.0339214 
C    -1.2061002    0.3099989   -1.6421886 
C    -1.7885019    2.1372539    0.5643214 
C    -3.0661444    2.4150533    0.0394441 
C    -4.0861995    2.8839078    0.8791559 
C    -5.5034564    3.1886357    0.3591089 
C    -5.6461240    2.8679388   -1.1437001 
C    -5.8136579    4.6912435    0.5787413 
C    -6.5223947    2.3199941    1.1408526 
C    -3.7875716    3.0638986    2.2501128 
C    -2.5307315    2.7710562    2.8061783 
C    -1.5326123    2.2950549    1.9331591 
C    -2.2149996    2.9241589    4.3076176 
C    -1.9367376    1.5207471    4.9038550 
C    -3.3809021    3.5685337    5.0853665 
C    -0.9575760    3.8132358    4.4849869 
C     0.0482549    2.9001783   -1.6376377 
C     1.2727885    2.7461317   -2.3202697 
C     1.6525766    3.6491587   -3.3237520 
C     2.9301995    3.4399026   -4.1612255 
C     3.6601588    4.7821860   -4.4072846 
C     2.5064731    2.8271750   -5.5228044 
C     3.9198974    2.4754730   -3.4702376 
C     0.7810290    4.7277320   -3.5976618 
C    -0.4279862    4.9276050   -2.9085050 
C    -0.7838744    3.9898555   -1.9173528 
C    -1.3904076    6.0912534   -3.2200395 
C    -1.6602943    6.9050719   -1.9289293 
C    -0.8232445    7.0482157   -4.2888090 
C    -2.7264407    5.5007644   -3.7433682 
H     4.0612277   -3.4335834   -4.9491552 
H     3.0846996   -4.7018975   -4.1535962 
H     4.0154862   -3.5473678   -3.1602115 
H     1.9754027   -2.5947741   -6.2268476 
H     1.0225560   -3.8985671   -5.4800674 
H     0.4776795   -2.2047487   -5.3259693 
H     3.2815249   -1.0035025   -4.9289867 
H     3.3957325   -1.0651607   -3.1549149 
H     1.8821535   -0.5118800   -3.9331196 
H     1.8574974   -1.2424259   -1.6543951 
H     0.6404770   -4.8835926   -3.6354622 
H    -2.4930238   -6.8572910   -3.0275996 
H    -2.5895632   -5.0687704   -3.0116848 
H    -1.2889083   -5.8915615   -3.9180765 
H     0.6427242   -7.0362696   -2.6157478 
H     0.6107387   -7.0650553   -0.8303969 
H    -0.5665305   -8.0377910   -1.7644206 
H    -2.5257502   -6.9715218   -0.5728637 
H    -1.3710457   -6.0820744    0.4481857 
H    -2.6549991   -5.1926150   -0.4268835 
H    -0.9201972   -3.9112887    0.2667169 
H     1.1763182   -0.6241780    3.5313717 
H     4.4520680   -1.0986161    5.3145257 
H     4.3012392   -2.6519453    6.1830182 
H     4.1452229   -1.1158443    7.0762477 
H     0.5565926   -2.3321779    6.8516248 
H     1.9766066   -3.3842624    7.1083042 
H     1.8527422   -1.8339122    7.9812955 
H     2.4224108    0.4527771    5.0600796 
H     2.1452412    0.3455338    6.8147922 
H     0.8217187   -0.0490446    5.6897692 
H     2.9323052   -4.1903534    5.2079423 
H     1.4471631   -4.2131739    1.1602673 
H     2.6096531   -5.8878040    0.8047265 
H     3.4926584   -7.2280037    1.5724077 
H     4.1882004   -5.5797510    1.5726755 
H     2.9902371   -6.3308489    5.1391599 
H     3.7144924   -7.4635358    3.9768069 
H     4.4233261   -5.8382555    4.1846128 
H     0.6924635   -6.5008360    4.0218142 
H     1.3978286   -7.7514873    2.9515703 
H     0.5424180   -6.3470373    2.2481480 
H    -1.0171655   -1.8494190    3.4044570 
H    -3.4023870   -1.6129582    4.0359673 
H    -5.1005486   -0.9394035    2.3170245 
H    -4.4163624   -3.3984040   -3.0656969 
H    -4.8587976   -3.9306607   -1.4231331 
H    -5.2612214   -1.1054405   -2.6222466 
H    -6.5212670   -2.3007758   -2.2486508 
H    -6.5720579   -0.6665803   -0.4728448 
H    -5.7619706   -2.0923279    0.2521609 
H    -2.7171020   -2.3718419   -4.0625379 
H    -1.3737599   -0.4722117   -4.9744618 
H    -0.4267207    1.2378026   -3.4477051 
H    -3.2568348    2.2272391   -1.0193834 
H    -6.6793921    3.0758089   -1.4713035 
H    -4.9724325    3.4898490   -1.7597380 
H    -5.4254294    1.8062297   -1.3481225 
H    -5.0941852    5.3230452    0.0278917 
H    -6.8299719    4.9295531    0.2174051 
H    -5.7615864    4.9673771    1.6462335 
H    -6.5165262    2.5497679    2.2201945 
H    -7.5457902    2.4981730    0.7653554 
H    -6.2815847    1.2506743    1.0163830 
H    -4.5804696    3.4323776    2.9055761 
H    -0.5438036    2.0189905    2.3165150 
H    -2.8291960    0.8781945    4.8202226 
H    -1.1113933    1.0134839    4.3746506 
H    -1.6628279    1.6033817    5.9710574 
H    -3.1064298    3.6714355    6.1493530 
H    -4.2951358    2.9513321    5.0373229 
H    -3.6196604    4.5756048    4.7004690 
H    -1.1042660    4.8053071    4.0231217 
H    -0.0624910    3.3526012    4.0311059 
H    -0.7430153    3.9606467    5.5581307 
H     1.9105436    1.8930235   -2.0653058 
H     3.0447499    5.4916894   -4.9855166 
H     4.5859054    4.6069369   -4.9826285 
H     3.9320769    5.2635011   -3.4526078 
H     3.3903127    2.6618068   -6.1651708 
H     2.0004739    1.8566856   -5.3736594 
H     1.8110059    3.4963350   -6.0588010 
H     4.2059790    2.8464091   -2.4706130 
H     4.8382239    2.3861509   -4.0753609 
H     3.5020810    1.4612267   -3.3587609 
H     1.0629225    5.4342480   -4.3809300 
H    -1.7198988    4.1074952   -1.3645064 
H    -0.7267207    7.3504481   -1.5461160 
H    -2.3736340    7.7220556   -2.1377329 
H    -2.0914908    6.2777584   -1.1290683 
H    -1.5374073    7.8702759   -4.4676855 
H    -0.6590186    6.5357857   -5.2530187 
H     0.1323635    7.4980921   -3.9657586 
H    -3.4363937    6.3126428   -3.9825060 
H    -3.2019238    4.8459171   -2.9920392 
H    -2.5607164    4.9045917   -4.6577078 
