200
Energy =
C     0.8672365   -2.9007417    2.1783366 
C     0.6856536   -1.9663845    3.2453856 
C    -0.5656430   -1.3603357    3.4911228 
H     1.5660398   -1.5679945    3.7658433 
Pd    0.1275011   -0.9790026    1.3502817 
P    -0.5263033    1.2277692    0.9827898 
P     0.3098091   -1.4514646   -0.9245652 
H     0.0277766   -3.5632186    1.9293711 
H    -1.4589077   -1.8429673    3.0617821 
C     4.7216360   -4.2985003    0.8514565 
C     3.5577317   -5.0251898    0.5629084 
C     2.3090111   -4.5685932    1.0027392 
C     2.1971991   -3.3699802    1.7421290 
C     3.3802807   -2.6443613    2.0226528 
C     4.6258974   -3.1057435    1.5883502 
H     5.6972822   -4.6575206    0.5081300 
H     3.6207632   -5.9573788   -0.0068919 
H     1.4054766   -5.1417347    0.7683372 
H     3.3244248   -1.7003293    2.5760297 
H     5.5282411   -2.5312105    1.8222818 
C    -1.4016776    1.5590752    6.5321295 
C    -2.2685421    1.3968773    5.4401414 
C    -1.9936894    0.4371308    4.4617787 
C    -0.8339730   -0.3672876    4.5439191 
C     0.0250863   -0.2004150    5.6533091 
C    -0.2603705    0.7501461    6.6391448 
H    -1.6189057    2.3055037    7.3027109 
H    -3.1613346    2.0241892    5.3484731 
H    -2.6669832    0.3249476    3.6048628 
H     0.9029497   -0.8443989    5.7660822 
H     0.4040274    0.8514041    7.5033796 
C     4.0066205    3.6307874    3.9747450 
C     3.0139059    2.6668267    4.6775344 
C     2.9875442    2.9711629    6.1944226 
C     3.5104356    1.2157806    4.4859223 
C     1.6248572    2.8829971    4.0448691 
C     1.1388153    2.0363818    3.0336161 
C     0.8249504    3.9846962    4.4073337 
C    -0.4210658    4.2630848    3.8083560 
C    -1.2386425    5.4887635    4.2623945 
C    -1.5382851    5.3812732    5.7791802 
C    -0.4137051    6.7724087    3.9859877 
C    -2.5823723    5.5991498    3.5098993 
C    -0.8644923    3.4065403    2.7862311 
C    -0.0825167    2.3090949    2.3921788 
C    -2.3014280    1.4512391    0.6281588 
C    -2.8095420    2.6627906    0.1279927 
C    -4.1849178    2.8007683   -0.1242123 
C    -4.7915723    4.1049270   -0.6756634 
C    -3.7082644    5.1646872   -0.9675584 
C    -5.7839629    4.6811154    0.3661453 
C    -5.5363705    3.7952739   -1.9994845 
C    -5.0158778    1.6895675    0.1302028 
C    -4.5294200    0.4522848    0.5965999 
C    -3.1509301    0.3539654    0.8447328 
C    -5.4861294   -0.7331184    0.8254626 
C    -6.3070895   -0.9975005   -0.4617833 
C    -4.7178198   -2.0251308    1.1795559 
C    -6.4425541   -0.3842264    1.9943859 
C     0.3577827    1.9993674   -0.4446058 
C     1.3955552    2.9256884   -0.2173759 
C     2.0967084    3.4788913   -1.2952061 
C     1.7724315    3.1270229   -2.6097765 
C     0.0182535    1.6268483   -1.7684100 
C     0.7280932    2.2195209   -2.8417556 
C    -1.0984740    0.6981487   -2.1252882 
C    -2.1949845    1.2523885   -2.8302921 
O    -2.1851273    2.6074158   -3.0353455 
C    -2.2846385    3.1190760   -4.3839151 
C    -0.9685017    3.7974688   -4.7739524 
C     0.1680894    2.8292826   -5.1146279 
O     0.3618757    1.8214776   -4.1033851 
C    -3.2707152    0.4564637   -3.2510579 
C    -3.2422885   -0.9199718   -3.0052760 
C    -2.1609638   -1.4963455   -2.3276119 
C    -1.0887889   -0.6987074   -1.8785419 
C     1.8239245   -0.8750316   -1.7597102 
C     2.8827592   -0.3840643   -0.9794964 
C     4.0589507    0.0825850   -1.5927909 
C     5.2473127    0.6321609   -0.7802210 
C     5.7322085    1.9747399   -1.3814505 
C     6.3977023   -0.4062106   -0.8345580 
C     4.8607655    0.8802856    0.6940040 
C     4.1324617    0.0097898   -2.9973210 
C     3.0817040   -0.4706984   -3.8060010 
C     1.9122287   -0.9066034   -3.1634786 
C     3.2378016   -0.4944579   -5.3383099 
C     3.5802640    0.9317979   -5.8386987 
C     1.9427181   -0.9568599   -6.0387100 
C     4.3842921   -1.4677736   -5.7139822 
C     0.1666361   -3.2518581   -1.2436684 
C    -0.8704460   -3.9427984   -0.5938907 
C    -1.0466443   -5.3271695   -0.7747759 
C    -2.2178016   -6.0403872   -0.0709599 
C    -3.5427008   -5.5548893   -0.7154292 
C    -2.2166312   -5.6847586    1.4381999 
C    -2.1316418   -7.5748286   -0.2083962 
C    -0.1396404   -5.9922630   -1.6220276 
C     0.9239859   -5.3311231   -2.2734138 
C     1.0682437   -3.9474499   -2.0668132 
C     1.8574532   -6.1057365   -3.2249022 
C     1.0742784   -6.3860576   -4.5350838 
C     3.1279966   -5.2958546   -3.5663190 
C     2.2929025   -7.4514680   -2.5942094 
H     5.0216539    3.5168052    4.3966178 
H     3.6951700    4.6820530    4.1037253 
H     4.0562795    3.4192297    2.8916870 
H     3.9784588    2.7675570    6.6363357 
H     2.7485097    4.0276651    6.4027554 
H     2.2411361    2.3424362    6.7087633 
H     4.4780324    1.0817507    4.9990551 
H     3.6680510    0.9676842    3.4224662 
H     2.7939300    0.4918275    4.9114379 
H     1.7133203    1.1593047    2.7171138 
H     1.1864334    4.6570824    5.1910731 
H    -2.0987667    6.2696525    6.1206413 
H    -2.1458734    4.4859489    5.9937579 
H    -0.6130235    5.3158478    6.3770815 
H     0.5412048    6.7697506    4.5394658 
H    -0.1840321    6.8655458    2.9099213 
H    -0.9820069    7.6667718    4.2979991 
H    -2.4348253    5.7248814    2.4225701 
H    -3.2164096    4.7090048    3.6717504 
H    -3.1404796    6.4789600    3.8734687 
H    -1.8226684    3.5824221    2.2952031 
H    -2.1181125    3.4784877   -0.0936475 
H    -2.9705253    4.7903504   -1.6978612 
H    -3.1709409    5.4631661   -0.0498667 
H    -4.1790711    6.0715633   -1.3846274 
H    -6.6016989    3.9726804    0.5852085 
H    -5.2655576    4.9076327    1.3147174 
H    -6.2375360    5.6147904   -0.0118763 
H    -4.8391748    3.3532669   -2.7312951 
H    -5.9572413    4.7220237   -2.4283341 
H    -6.3693786    3.0873575   -1.8485639 
H    -6.0894600    1.7878286   -0.0624837 
H    -2.7058652   -0.5852894    1.1844492 
H    -6.9245091   -0.1269332   -0.7414934 
H    -6.9874031   -1.8543811   -0.3109642 
H    -5.6376407   -1.2273073   -1.3082803 
H    -4.1650132   -1.9289895    2.1314245 
H    -5.4256874   -2.8639513    1.2928121 
H    -3.9993198   -2.2936449    0.3848105 
H    -5.8739143   -0.1971532    2.9225635 
H    -7.1447255   -1.2167144    2.1801219 
H    -7.0367147    0.5189214    1.7715182 
H     1.6475819    3.2260628    0.8028363 
H     2.9011138    4.1972812   -1.1072041 
H     2.3272767    3.5509349   -3.4513159 
H    -2.5422944    2.3004037   -5.0812202 
H    -3.1079660    3.8541454   -4.3880654 
H    -1.1414775    4.4407678   -5.6572781 
H    -0.6669322    4.4638346   -3.9455473 
H     1.1064168    3.3839688   -5.3064785 
H    -0.0659704    2.2475103   -6.0210959 
H    -4.1186184    0.9209676   -3.7629488 
H    -4.0681621   -1.5530946   -3.3454554 
H    -2.1468843   -2.5767416   -2.1661548 
H     2.7623110   -0.3583748    0.1070980 
H     6.5668505    2.3783685   -0.7814405 
H     6.0958349    1.8588747   -2.4165798 
H     4.9161742    2.7172688   -1.3866920 
H     6.7328022   -0.5738452   -1.8730274 
H     7.2652830   -0.0535720   -0.2478475 
H     6.0667461   -1.3757735   -0.4244012 
H     4.5903185   -0.0573189    1.2075276 
H     5.7139115    1.3217755    1.2376104 
H     4.0077289    1.5776237    0.7728730 
H     5.0480466    0.3550534   -3.4883206 
H     1.0527175   -1.2525538   -3.7420476 
H     2.7860589    1.6392941   -5.5475484 
H     4.5341333    1.2968436   -5.4210147 
H     3.6713119    0.9402010   -6.9394467 
H     2.0827736   -0.9342573   -7.1333293 
H     1.0943409   -0.2975870   -5.7853385 
H     1.6749682   -1.9919365   -5.7604991 
H     4.1588235   -2.4910751   -5.3657878 
H     5.3434014   -1.1594194   -5.2626558 
H     4.5192866   -1.4969800   -6.8100607 
H    -1.5485829   -3.3869548    0.0643124 
H    -3.6608347   -4.4617849   -0.6163055 
H    -4.4089508   -6.0356789   -0.2265123 
H    -3.5688294   -5.8049662   -1.7903972 
H    -3.0344858   -6.2166305    1.9551896 
H    -1.2629221   -5.9775047    1.9122010 
H    -2.3700044   -4.6042382    1.6089675 
H    -2.2003047   -7.8972583   -1.2619688 
H    -2.9697216   -8.0443980    0.3346999 
H    -1.1910253   -7.9681822    0.2159337 
H    -0.2594942   -7.0659539   -1.7815410 
H     1.8888300   -3.4028417   -2.5359106 
H     0.7594465   -5.4411442   -5.0121970 
H     1.7066193   -6.9425221   -5.2501121 
H     0.1689530   -6.9864242   -4.3375957 
H     3.7936123   -5.9014569   -4.2050005 
H     3.6869370   -5.0160919   -2.6558550 
H     2.8914590   -4.3716636   -4.1220699 
H     1.4363151   -8.1203009   -2.4045723 
H     2.8184968   -7.2912661   -1.6370756 
H     2.9787198   -7.9822089   -3.2773264 
