200
Energy =
C     3.4515350    0.2577649    1.4222994 
C     3.4308142    1.5674633    0.8484307 
C     2.5167078    2.5498624    1.2881046 
H     4.0005262    1.7605080   -0.0694861 
Pd    1.4316630    0.6633634    0.5974885 
P    -0.4287716    1.5255728   -0.5059346 
P     0.4747604   -1.4473382    0.8542535 
H     3.2146846    0.1633789    2.4903981 
H     2.0469743    2.4005860    2.2739267 
C     5.6670215   -3.0485857   -0.2302525 
C     5.3563946   -1.9413906   -1.0380445 
C     4.6380925   -0.8645288   -0.5112984 
C     4.2212287   -0.8602251    0.8418245 
C     4.5426917   -1.9788292    1.6426150 
C     5.2568175   -3.0595777    1.1104517 
H     6.2264827   -3.8935208   -0.6446238 
H     5.6740437   -1.9201793   -2.0857875 
H     4.3863063   -0.0211253   -1.1636829 
H     4.2227084   -1.9999358    2.6899537 
H     5.4961199   -3.9145874    1.7502482 
C     2.0790570    6.5235849   -0.2917318 
C     1.0738903    5.9550365    0.5057736 
C     1.2319762    4.6653773    1.0196460 
C     2.3926501    3.9091636    0.7375494 
C     3.4037205    4.4992001   -0.0537501 
C     3.2479956    5.7945678   -0.5591208 
H     1.9586635    7.5353180   -0.6925743 
H     0.1605373    6.5166898    0.7246404 
H     0.4356366    4.2236054    1.6264321 
H     4.3338786    3.9558350   -0.2470439 
H     4.0495259    6.2442136   -1.1539029 
C     1.3230632   -2.8109585   -5.3743752 
C     2.1734652   -2.6479360   -4.0901674 
C     2.6791156   -1.1904971   -4.0335826 
C     3.3920498   -3.6051060   -4.1491139 
C     1.3354640   -3.0050729   -2.8473572 
C     1.2931242   -2.1816803   -1.7082377 
C     0.5955703   -4.2026496   -2.8121080 
C    -0.2019837   -4.5904447   -1.7158074 
C    -0.9978351   -5.9081549   -1.7705712 
C    -1.8798514   -6.0967802   -0.5184518 
C    -1.9173730   -5.8973315   -3.0181672 
C    -0.0046986   -7.0944700   -1.8662322 
C    -0.2411718   -3.7344995   -0.6039584 
C     0.5141604   -2.5474490   -0.5991965 
C     1.2478310   -2.3641091    2.2421092 
C     1.6797327   -3.6956017    2.1199194 
C     2.2749021   -4.3558180    3.2097050 
C     2.6906669   -5.8379447    3.1240171 
C     2.7496544   -6.3324436    1.6615707 
C     1.6323321   -6.6724189    3.8935882 
C     4.0809384   -6.0591802    3.7691352 
C     2.4342623   -3.6375288    4.4143704 
C     2.0312668   -2.2963825    4.5616567 
C     1.4378513   -1.6706707    3.4495478 
C     2.1898214   -1.5104217    5.8778399 
C     0.7781330   -1.2652527    6.4723315 
C     3.0398139   -2.2749494    6.9139800 
C     2.8750759   -0.1489779    5.5943523 
C    -1.3154187   -1.3261363    1.3180881 
C    -1.7300833   -1.5612687    2.6443418 
C    -3.0775444   -1.4309438    3.0029723 
C    -4.0324334   -1.0706696    2.0473975 
C    -2.2723582   -0.9661664    0.3343805 
C    -3.6308315   -0.8594532    0.7199686 
C    -1.9617328   -0.7822018   -1.1166635 
C    -2.5233170   -1.7221804   -2.0164708 
O    -3.2401663   -2.7482833   -1.4529430 
C    -4.5202593   -3.0876294   -2.0205709 
C    -5.5327743   -1.9431921   -1.9193745 
C    -5.6663616   -1.3391244   -0.5189350 
O    -4.5278214   -0.4902085   -0.2483158 
C    -2.3110744   -1.6216590   -3.3993259 
C    -1.5589225   -0.5548243   -3.9022566 
C    -1.0129295    0.4005635   -3.0372762 
C    -1.2072086    0.2941838   -1.6448524 
C    -1.7749769    2.1062034    0.5803876 
C    -3.0650123    2.3696173    0.0786498 
C    -4.0751515    2.8264629    0.9369613 
C    -5.5031442    3.1225011    0.4412638 
C    -6.5029079    2.2367990    1.2283262 
C    -5.6653051    2.8174232   -1.0628080 
C    -5.8240063    4.6197566    0.6816370 
C    -3.7556529    3.0045729    2.3036652 
C    -2.4844055    2.7303558    2.8355437 
C    -1.4957382    2.2709400    1.9434904 
C    -2.1311904    2.9124347    4.3247982 
C    -3.3420154    3.3781517    5.1586664 
C    -1.0068631    3.9735312    4.4478738 
C    -1.6261255    1.5648475    4.8998209 
C     0.0279784    2.8941424   -1.6347938 
C     1.2592701    2.7690927   -2.3100279 
C     1.6254266    3.6834163   -3.3082526 
C     2.9096183    3.5017659   -4.1415435 
C     2.5025992    2.8879143   -5.5076803 
C     3.9132472    2.5517814   -3.4504336 
C     3.6145050    4.8591255   -4.3777995 
C     0.7331162    4.7446965   -3.5828644 
C    -0.4845900    4.9154474   -2.9012072 
C    -0.8269766    3.9658017   -1.9167523 
C    -1.4624627    6.0682091   -3.2049713 
C    -2.8114131    5.4677119   -3.6806874 
C    -1.6949851    6.8992166   -1.9172754 
C    -0.9311093    7.0113280   -4.3040762 
H     1.9190318   -2.5300597   -6.2606481 
H     0.4300528   -2.1640188   -5.3357266 
H     0.9858145   -3.8512302   -5.5198519 
H     3.2310828   -0.9469283   -4.9578410 
H     1.8398663   -0.4786346   -3.9394216 
H     3.3659349   -1.0306902   -3.1858650 
H     4.0278897   -3.3687126   -5.0215067 
H     3.0678799   -4.6567590   -4.2375559 
H     4.0028863   -3.5145027   -3.2344450 
H     1.8476032   -1.2401779   -1.6693077 
H     0.6323154   -4.8619100   -3.6854372 
H    -2.4551166   -7.0347123   -0.6057361 
H    -1.2730681   -6.1647644    0.4022790 
H    -2.5940645   -5.2628836   -0.4037144 
H    -2.6063445   -5.0372596   -2.9770023 
H    -1.3390857   -5.8284973   -3.9555087 
H    -2.5161234   -6.8244804   -3.0611552 
H    -0.5538348   -8.0518852   -1.9129836 
H     0.6286062   -7.0226308   -2.7675199 
H     0.6606519   -7.1199259   -0.9854167 
H    -0.8714316   -3.9660527    0.2576525 
H     1.5563840   -4.2089278    1.1653930 
H     3.4437780   -5.7235155    1.0556401 
H     1.7579380   -6.3071928    1.1770649 
H     3.0999528   -7.3786154    1.6371441 
H     1.5771285   -6.3663445    4.9530084 
H     0.6306539   -6.5401740    3.4477285 
H     1.8890749   -7.7464808    3.8588614 
H     4.8532942   -5.4481827    3.2708472 
H     4.3725250   -7.1201038    3.6788860 
H     4.0876552   -5.8075933    4.8431380 
H     2.8919649   -4.1457312    5.2656965 
H     1.1153758   -0.6248585    3.5180531 
H     0.1401307   -0.6983025    5.7725936 
H     0.8494872   -0.6882839    7.4118556 
H     0.2755311   -2.2233127    6.6921896 
H     4.0509194   -2.4939593    6.5276984 
H     3.1514249   -1.6640525    7.8261912 
H     2.5665682   -3.2269604    7.2111351 
H     3.8645816   -0.2946846    5.1257615 
H     3.0196857    0.4084371    6.5363726 
H     2.2678319    0.4882782    4.9268838 
H    -1.0031674   -1.8626301    3.4020616 
H    -3.3822690   -1.6119129    4.0389055 
H    -5.0851495   -0.9490364    2.3192762 
H    -4.4130942   -3.4201585   -3.0707649 
H    -4.8461397   -3.9577081   -1.4274959 
H    -5.2632573   -1.1316400   -2.6194252 
H    -6.5171753   -2.3319778   -2.2414075 
H    -6.5640368   -0.6994029   -0.4630526 
H    -5.7462606   -2.1238238    0.2561291 
H    -2.7281741   -2.3743694   -4.0738835 
H    -1.4003724   -0.4620589   -4.9814799 
H    -0.4444634    1.2381604   -3.4488842 
H    -3.2730550    2.1787640   -0.9763507 
H    -7.5337785    2.4141119    0.8734547 
H    -6.2585765    1.1709537    1.0837573 
H    -6.4790660    2.4509025    2.3106481 
H    -5.4384623    1.7601996   -1.2824426 
H    -6.7050286    3.0201300   -1.3727598 
H    -5.0059749    3.4521052   -1.6813327 
H    -5.1176489    5.2642022    0.1285405 
H    -6.8470778    4.8523610    0.3360094 
H    -5.7608833    4.8848555    1.7513075 
H    -4.5419466    3.3599198    2.9741884 
H    -0.4946659    2.0135147    2.3078653 
H    -3.7202824    4.3580596    4.8183708 
H    -4.1708556    2.6497949    5.1136642 
H    -3.0466605    3.4845793    6.2166735 
H    -0.7528290    4.1424357    5.5094322 
H    -1.3224048    4.9364957    4.0098996 
H    -0.0851491    3.6504802    3.9320267 
H    -0.7408916    1.1953571    4.3532416 
H    -2.4074671    0.7896065    4.8301855 
H    -1.3428936    1.6827023    5.9608425 
H     1.9135172    1.9288618   -2.0542397 
H     2.0142577    1.9073896   -5.3654002 
H     3.3921216    2.7422957   -6.1469627 
H     1.7971439    3.5466755   -6.0435321 
H     4.8375573    2.4852526   -4.0494356 
H     4.1831476    2.9215818   -2.4460296 
H     3.5142399    1.5283836   -3.3504418 
H     2.9897395    5.5566246   -4.9606905 
H     4.5489546    4.7042895   -4.9449414 
H     3.8660177    5.3435995   -3.4192951 
H     1.0053144    5.4604198   -4.3611610 
H    -1.7680929    4.0620088   -1.3682634 
H    -3.2663243    4.8248813   -2.9067653 
H    -3.5287442    6.2750449   -3.9128155 
H    -2.6704189    4.8574492   -4.5898669 
H    -2.4186189    7.7103913   -2.1132313 
H    -0.7511503    7.3544350   -1.5718431 
H    -2.0963241    6.2795207   -1.0961201 
H    -1.6593239    7.8211775   -4.4820553 
H    -0.7818770    6.4816028   -5.2613902 
H     0.0253826    7.4798283   -4.0118242 
