197
Energy =
C    -1.6847663    2.4896927    2.1858115 
C    -2.7842741    1.5878635    2.0175654 
C    -2.7082496    0.2766852    2.5423976 
H    -3.6095989    1.8556393    1.3460859 
Pd   -1.0155676    0.6891299    1.0743130 
P    -0.9647335   -1.3320228   -0.0775983 
P     1.1333714    1.2545422    0.4051892 
H    -1.0899647    2.3822123    3.1034175 
H    -1.9670363    0.1149550    3.3414025 
C    -1.3872291    6.3868264    0.3733659 
C    -2.2079476    5.4076945   -0.2113235 
C    -2.3073623    4.1346540    0.3592025 
C    -1.5982845    3.8140628    1.5412493 
C    -0.7735943    4.8078223    2.1140042 
C    -0.6692878    6.0787392    1.5379330 
H    -1.3092155    7.3811605   -0.0782097 
H    -2.7696252    5.6385826   -1.1222108 
H    -2.9329711    3.3774082   -0.1263427 
H    -0.2072423    4.5759337    3.0202113 
H    -0.0268869    6.8313861    2.0067349 
C    -5.5061286   -2.9657042    2.2265961 
C    -4.3264850   -3.1019633    2.9733760 
C    -3.4327056   -2.0311604    3.0649829 
C    -3.6940702   -0.8037179    2.4115035 
C    -4.8843589   -0.6852487    1.6577897 
C    -5.7784705   -1.7558848    1.5671300 
H    -6.2135520   -3.7984589    2.1610868 
H    -4.1038829   -4.0423193    3.4882493 
H    -2.5132006   -2.1420243    3.6481432 
H    -5.1157555    0.2501160    1.1407183 
H    -6.6929328   -1.6482198    0.9756214 
C     0.6799387   -6.3487136   -1.2286181 
C     0.9115352   -6.3754089    0.2970909 
C     2.4139452   -6.6631017    0.5522578 
C     0.0438334   -7.5005771    0.9157901 
C     0.5394442   -5.0334645    0.9548392 
C    -0.0118318   -3.9689250    0.2231077 
C     0.7708085   -4.8335580    2.3320543 
C     0.5107850   -3.6157725    2.9907565 
C     0.7992521   -3.4592769    4.4964117 
C    -0.2404156   -4.2994667    5.2828452 
C     2.2264103   -3.9649884    4.8234619 
C     0.6975580   -1.9851815    4.9480811 
C    -0.0346124   -2.5716618    2.2255874 
C    -0.3123027   -2.7525640    0.8614324 
C    -2.6497670   -1.7142555   -0.6814069 
C    -3.1740607   -3.0131039   -0.7173218 
C    -4.4215215   -3.2590756   -1.3233267 
C    -4.9819455   -4.6884713   -1.4595248 
C    -4.7364644   -5.1564214   -2.9185867 
C    -6.5016113   -4.7161916   -1.1640616 
C    -4.2821147   -5.6711072   -0.4935476 
C    -5.1144333   -2.1615920   -1.8701629 
C    -4.6359035   -0.8363591   -1.8046585 
C    -3.3866586   -0.6297163   -1.1987383 
C    -5.4638097    0.3191761   -2.4005422 
C    -5.4784984    0.1705375   -3.9440761 
C    -4.8729047    1.6999673   -2.0420986 
C    -6.9142835    0.2640404   -1.8576303 
C     0.0399743   -1.3355377   -1.6305110 
C    -0.5981325   -1.3859077   -2.8843352 
C     0.1524010   -1.4114623   -4.0663396 
C     1.5473364   -1.4107562   -4.0077326 
C     1.4587763   -1.3173033   -1.5532356 
C     2.1891169   -1.3914689   -2.7603680 
C     2.2163934   -1.3104982   -0.2655929 
C     3.0370546   -2.4296984    0.0151246 
O     3.1150801   -3.4590882   -0.9041961 
C     4.3380690   -3.4813033   -1.6715461 
C     4.1483084   -2.7157357   -2.9799324 
O     3.5705317   -1.4206596   -2.7141967 
C     3.7585710   -2.5335529    1.2126067 
C     3.7339067   -1.4750124    2.1236748 
C     2.9803865   -0.3290326    1.8442243 
C     2.2088521   -0.2363774    0.6689292 
C     1.4153350    1.7559882   -1.3245950 
C     2.7268160    1.7572011   -1.8423604 
C     2.9665078    2.1814961   -3.1552430 
C     4.3796148    2.2040163   -3.7675216 
C     5.4468319    1.7079715   -2.7689253 
C     4.4084969    1.2741512   -5.0078526 
C     4.7265909    3.6557827   -4.1856294 
C     1.8551357    2.5962220   -3.9265188 
C     0.5371048    2.5964023   -3.4400869 
C     0.3323311    2.1659394   -2.1113052 
C    -0.6696074    3.0234264   -4.3001085 
C    -0.2394402    3.6301233   -5.6516339 
C    -1.5035186    4.0783654   -3.5324377 
C    -1.5500720    1.7778978   -4.5752868 
C     1.8658681    2.5819255    1.4384988 
C     1.7126854    2.5024986    2.8404103 
C     2.2418397    3.4936251    3.6780219 
C     2.1239555    3.4235730    5.2133510 
C     1.4050650    4.6926588    5.7387355 
C     1.3254302    2.1866558    5.6775219 
C     3.5484918    3.3447438    5.8208882 
C     2.9023370    4.5874955    3.0684443 
C     3.0445309    4.7096210    1.6771215 
C     2.5146017    3.6819772    0.8674561 
C     3.7796264    5.8836760    1.0014163 
C     4.1887556    6.9736201    2.0132016 
C     2.8647858    6.5270187   -0.0723959 
C     5.0588263    5.3309269    0.3178530 
H     0.9788691   -7.3168243   -1.6663014 
H    -0.3838788   -6.1868766   -1.4796009 
H     1.2791034   -5.5552995   -1.7087906 
H     2.7084628   -7.6101228    0.0657896 
H     3.0300828   -5.8451905    0.1413771 
H     2.6367787   -6.7579280    1.6290733 
H     0.3006273   -8.4752806    0.4638393 
H    -1.0296100   -7.3091231    0.7389517 
H     0.1997467   -7.5818583    2.0056971 
H    -0.1778493   -4.0602397   -0.8525888 
H     1.1945589   -5.6600807    2.9117629 
H    -0.1807419   -5.3668166    5.0075673 
H    -0.0642482   -4.2151958    6.3702514 
H    -1.2674951   -3.9522050    5.0711932 
H     2.4392619   -3.8310296    5.8986699 
H     2.9808170   -3.4041094    4.2458638 
H     2.3480435   -5.0370936    4.5938749 
H    -0.3262657   -1.5860025    4.8331643 
H     0.9602795   -1.9023450    6.0166455 
H     1.3865142   -1.3401113    4.3742507 
H    -0.2259886   -1.5907968    2.6682105 
H    -2.6005795   -3.8318199   -0.2790535 
H    -5.1220893   -6.1814415   -3.0649943 
H    -3.6573626   -5.1545597   -3.1535745 
H    -5.2437061   -4.4916354   -3.6397306 
H    -6.7143502   -4.3422340   -0.1483963 
H    -6.8799935   -5.7505881   -1.2377775 
H    -7.0768419   -4.1061441   -1.8810424 
H    -4.7518386   -6.6665545   -0.5719076 
H    -4.3646956   -5.3325117    0.5541978 
H    -3.2109139   -5.7954261   -0.7317373 
H    -6.0756284   -2.3436175   -2.3601493 
H    -2.9591266    0.3761059   -1.1256624 
H    -6.0714475    0.9811284   -4.4043545 
H    -4.4527505    0.2175998   -4.3501338 
H    -5.9225743   -0.7925974   -4.2497715 
H    -3.8591525    1.8395453   -2.4541295 
H    -5.5104090    2.4981574   -2.4591443 
H    -4.8274392    1.8469312   -0.9477853 
H    -7.4200774   -0.6798240   -2.1218640 
H    -7.5103770    1.0911523   -2.2815564 
H    -6.9275115    0.3617446   -0.7576423 
H    -1.6886953   -1.4168377   -2.9408989 
H    -0.3570177   -1.4431382   -5.0345456 
H     2.1552349   -1.4356070   -4.9169312 
H     4.5766429   -4.5395794   -1.8749207 
H     5.1557387   -3.0383116   -1.0745435 
H     5.1215227   -2.5440622   -3.4708990 
H     3.4933439   -3.2779669   -3.6701145 
H     4.3418519   -3.4391799    1.4030054 
H     4.3141173   -1.5313245    3.0502802 
H     3.0080438    0.5078316    2.5454608 
H     3.5467267    1.4083765   -1.2101561 
H     5.4969586    2.3502986   -1.8714709 
H     6.4406967    1.7306345   -3.2485487 
H     5.2436013    0.6709102   -2.4506437 
H     5.4104349    1.2906170   -5.4727773 
H     3.6774349    1.5872841   -5.7734018 
H     4.1784960    0.2376934   -4.7076504 
H     4.7016787    4.3309432   -3.3116905 
H     5.7397774    3.6949844   -4.6237242 
H     4.0194298    4.0463383   -4.9378432 
H     2.0366064    2.9249872   -4.9527050 
H    -0.6739962    2.1403118   -1.6784728 
H    -1.1332270    3.9416716   -6.2193439 
H     0.3988563    4.5203242   -5.5123019 
H     0.3094946    2.9017202   -6.2739058 
H    -0.8918051    4.9620137   -3.2810224 
H    -2.3586420    4.4097481   -4.1483639 
H    -1.9061290    3.6715807   -2.5907305 
H    -0.9967963    1.0337264   -5.1721025 
H    -2.4602813    2.0649836   -5.1320302 
H    -1.8603464    1.2869467   -3.6367558 
H     1.1676159    1.6546147    3.2651909 
H     0.3817783    4.7658139    5.3295197 
H     1.3307945    4.6602718    6.8400969 
H     1.9476581    5.6139636    5.4663889 
H     0.2920194    2.1961101    5.2853696 
H     1.2606233    2.1779762    6.7789900 
H     1.8070936    1.2429216    5.3653568 
H     4.1532618    4.2280304    5.5531842 
H     3.4926554    3.2937829    6.9228631 
H     4.0794894    2.4467402    5.4586236 
H     3.3121949    5.3689998    3.7131155 
H     2.6077973    3.7460517   -0.2194617 
H     4.8922884    6.5877081    2.7717010 
H     3.3102600    7.3942989    2.5343975 
H     4.6932973    7.8006763    1.4848965 
H     1.9347163    6.9113096    0.3790980 
H     3.3895322    7.3683387   -0.5586575 
H     2.5838746    5.8073160   -0.8606235 
H     4.8115434    4.5728693   -0.4464109 
H     5.6097445    6.1484074   -0.1807415 
H     5.7298907    4.8622446    1.0587565 
