197
Energy =
C    -1.7513108    2.7206177    1.7468202 
C    -2.9172577    1.9401263    1.4749836 
C    -3.0887350    0.6460162    2.0135784 
H    -3.6059875    2.2630976    0.6835924 
Pd   -1.1417600    0.7876407    0.8354514 
P    -1.0065921   -1.2746694   -0.2374623 
P     1.1263508    1.2111668    0.5231528 
H    -1.2879151    2.6219757    2.7371971 
H    -2.4774225    0.3683205    2.8880832 
C    -0.7509542    6.3480728   -0.3537148 
C    -0.1817323    6.0632511    0.8955803 
C    -0.5170080    4.8859737    1.5757493 
C    -1.4292733    3.9630123    1.0171230 
C    -1.9923454    4.2611261   -0.2472572 
C    -1.6630088    5.4411072   -0.9196834 
H    -0.4898572    7.2698592   -0.8835814 
H     0.5270267    6.7636473    1.3479337 
H    -0.0643529    4.6719212    2.5498619 
H    -2.6872828    3.5561967   -0.7169706 
H    -2.1166660    5.6546111   -1.8931414 
C    -6.4374951   -1.9367305    1.2368038 
C    -5.2162661   -2.4663070    1.6818646 
C    -4.1370281   -1.6185701    1.9459996 
C    -4.2486645   -0.2233571    1.7503087 
C    -5.4882638    0.2992233    1.3177810 
C    -6.5724767   -0.5501934    1.0695692 
H    -7.2832931   -2.6004759    1.0309672 
H    -5.1012508   -3.5464075    1.8185457 
H    -3.1828126   -2.0420226    2.2760712 
H    -5.6166501    1.3811727    1.2109476 
H    -7.5318601   -0.1263053    0.7558322 
C    -1.5151366   -3.1990061    4.9644553 
C    -0.0394563   -3.3986857    4.5301418 
C     0.5372901   -4.6145907    5.2836648 
C     0.7829214   -2.1441177    4.9199155 
C     0.0022835   -3.5869192    3.0009770 
C    -0.4192267   -2.5323376    2.1664608 
C     0.4278130   -4.7726101    2.3788817 
C     0.4543505   -4.9410654    0.9737614 
C     0.9519479   -6.2673684    0.3687497 
C     0.0486020   -7.4229659    0.8701426 
C     0.9159966   -6.2454327   -1.1741441 
C     2.4172835   -6.5081439    0.8146637 
C     0.0254942   -3.8711617    0.1762523 
C    -0.4195483   -2.6746356    0.7734130 
C    -2.6101865   -1.7595235   -0.9757261 
C    -3.3974863   -0.7231760   -1.5077892 
C    -4.5807831   -1.0075440   -2.2102740 
C    -5.3822336    0.1015536   -2.9196416 
C    -5.0539239    1.4999893   -2.3493241 
C    -6.9046781   -0.1348325   -2.7774661 
C    -4.9929791    0.0729172   -4.4218803 
C    -4.9630417   -2.3598120   -2.3133635 
C    -4.2162410   -3.4174714   -1.7542959 
C    -3.0211938   -3.0973309   -1.0872249 
C    -4.7062922   -4.8711164   -1.9063536 
C    -3.7738390   -5.8736192   -1.1925871 
C    -4.7527868   -5.2305995   -3.4141460 
C    -6.1254000   -5.0058520   -1.2975411 
C     0.1294382   -1.2169298   -1.6979066 
C    -0.4193765   -1.1313447   -2.9925065 
C     0.4098261   -1.0463138   -4.1167479 
C     1.7983405   -1.0766244   -3.9646635 
C     1.5399816   -1.2288050   -1.5240947 
C     2.3515038   -1.1995357   -2.6820459 
C     2.2123574   -1.3254349   -0.1939542 
C     3.0197208   -2.4576674    0.0629113 
O     3.1551264   -3.4270373   -0.9134070 
C     4.4179951   -3.4013215   -1.6120905 
C     4.3005368   -2.5460408   -2.8717279 
O     3.7255443   -1.2631400   -2.5454255 
C     3.6628330   -2.6394559    1.2956688 
C     3.5589420   -1.6523239    2.2780912 
C     2.8148134   -0.4927887    2.0294869 
C     2.1350402   -0.3190711    0.8084311 
C     1.6464862    1.8113209   -1.1175940 
C     0.6676064    2.2254696   -2.0336048 
C     1.0391502    2.6705639   -3.3154655 
C    -0.0003072    3.1423548   -4.3510432 
C     0.3035279    2.5301720   -5.7407056 
C    -1.4326113    2.7268394   -3.9478631 
C     0.0738735    4.6888626   -4.4408543 
C     2.4133630    2.7007737   -3.6204510 
C     3.4179892    2.2826815   -2.7224386 
C     3.0118540    1.8274229   -1.4587455 
C     4.8974630    2.3173891   -3.1497305 
C     5.8254974    1.7695763   -2.0450999 
C     5.3010978    3.7811867   -3.4605536 
C     5.0798148    1.4396520   -4.4149724 
C     1.7578298    2.4128187    1.7568536 
C     2.5667823    3.5038280    1.3959219 
C     3.0231814    4.4072396    2.3718757 
C     3.9640174    5.5747021    2.0134493 
C     3.5055271    6.8814163    2.7069247 
C     5.3885645    5.2068782    2.5072238 
C     4.0123320    5.8249560    0.4897276 
C     2.6368514    4.1880542    3.7120083 
C     1.8111476    3.1165782    4.1021492 
C     1.3726891    2.2349301    3.0964326 
C     1.3903459    2.8660600    5.5634677 
C     2.0539903    1.5499509    6.0468296 
C    -0.1518285    2.7269302    5.6426832 
C     1.8240187    4.0132852    6.4993481 
H    -1.5801139   -3.0748906    6.0601724 
H    -1.9577157   -2.3012200    4.4975621 
H    -2.1309110   -4.0691253    4.6774778 
H     0.5016516   -4.4300346    6.3711877 
H    -0.0425017   -5.5326330    5.0836587 
H     1.5905295   -4.8007283    5.0085588 
H     0.7439226   -1.9848796    6.0121117 
H     0.3930680   -1.2323055    4.4340834 
H     1.8388027   -2.2570042    4.6215956 
H    -0.7360011   -1.5757442    2.5971235 
H     0.7639842   -5.6039412    3.0034936 
H    -1.0003013   -7.2600942    0.5643482 
H     0.3875161   -8.3842262    0.4444397 
H     0.0728794   -7.5150248    1.9698704 
H     1.2890146   -7.2073314   -1.5662695 
H     1.5541570   -5.4399076   -1.5762976 
H    -0.1111843   -6.1074548   -1.5568343 
H     2.5094588   -6.5592856    1.9134989 
H     2.7888417   -7.4627273    0.4012685 
H     3.0618309   -5.6916216    0.4471547 
H     0.0594414   -3.9398975   -0.9133904 
H    -3.0578750    0.3105535   -1.3831728 
H    -5.6857712    2.2604024   -2.8393285 
H    -4.0025848    1.7845542   -2.5284035 
H    -5.2479767    1.5406880   -1.2635357 
H    -7.2271536   -1.0706917   -3.2643568 
H    -7.4604643    0.6903383   -3.2559274 
H    -7.1967955   -0.1821201   -1.7149742 
H    -5.5456140    0.8504112   -4.9796780 
H    -5.2261558   -0.9073392   -4.8730028 
H    -3.9113116    0.2591433   -4.5488997 
H    -5.8822095   -2.6021708   -2.8550456 
H    -2.4070840   -3.8831163   -0.6442754 
H    -4.1674508   -6.8974246   -1.3133865 
H    -2.7534461   -5.8576388   -1.6149476 
H    -3.7024099   -5.6671349   -0.1096955 
H    -3.7514885   -5.1360031   -3.8698433 
H    -5.0979853   -6.2712279   -3.5487887 
H    -5.4433732   -4.5718824   -3.9685524 
H    -6.1126591   -4.7700787   -0.2197485 
H    -6.4962975   -6.0388334   -1.4207589 
H    -6.8472987   -4.3284108   -1.7851596 
H    -1.5040179   -1.1416850   -3.1255782 
H    -0.0330630   -0.9702817   -5.1148022 
H     2.4685403   -1.0155830   -4.8270774 
H     4.6661237   -4.4439578   -1.8755158 
H     5.2020387   -3.0046439   -0.9419241 
H     5.2985703   -2.3561956   -3.3030722 
H     3.6730086   -3.0498584   -3.6290982 
H     4.2453397   -3.5503893    1.4610826 
H     4.0705561   -1.7752535    3.2380537 
H     2.7789208    0.2883994    2.7920050 
H    -0.3830130    2.1772013   -1.7344163 
H     1.2826864    2.8535639   -6.1324880 
H    -0.4632429    2.8480282   -6.4690548 
H     0.3016741    1.4278999   -5.6927480 
H    -2.1463989    3.0265039   -4.7346210 
H    -1.7510660    3.2127842   -3.0105834 
H    -1.5100454    1.6330739   -3.8144709 
H     1.0741329    5.0181738   -4.7722186 
H    -0.6699125    5.0711162   -5.1633636 
H    -0.1249502    5.1461885   -3.4564705 
H     2.7189515    3.0546571   -4.6102252 
H     3.7444209    1.4576964   -0.7376072 
H     6.8728549    1.7986032   -2.3921991 
H     5.7651429    2.3743972   -1.1222265 
H     5.5754233    0.7232535   -1.7975591 
H     5.1739210    4.4208230   -2.5692238 
H     6.3599895    3.8280888   -3.7716358 
H     4.6910406    4.2087485   -4.2751023 
H     4.7834231    0.3993704   -4.1981686 
H     6.1371341    1.4477893   -4.7350193 
H     4.4713155    1.8065503   -5.2596920 
H     2.8282955    3.6477010    0.3467842 
H     3.5258886    6.7997364    3.8069119 
H     4.1771586    7.7115101    2.4266387 
H     2.4797211    7.1535811    2.4040783 
H     5.4029466    5.0449736    3.5993052 
H     6.0993050    6.0191109    2.2710623 
H     5.7444008    4.2817421    2.0204096 
H     3.0071512    6.0320133    0.0813341 
H     4.6544853    6.6968230    0.2772991 
H     4.4356851    4.9644232   -0.0575769 
H     2.9929662    4.8831163    4.4753232 
H     0.7189168    1.3932878    3.3549534 
H     3.1543514    1.6284777    6.0029665 
H     1.7479728    0.6912095    5.4243243 
H     1.7639980    1.3327230    7.0903909 
H    -0.5179481    1.8611647    5.0622047 
H    -0.4682562    2.5767986    6.6897997 
H    -0.6508693    3.6345270    5.2592484 
H     1.3858405    4.9784557    6.1896516 
H     1.4832028    3.8028754    7.5276218 
H     2.9220422    4.1230484    6.5314556 
