197
Energy =
C    -1.8453200    2.5374525    1.8792172 
C    -2.9426742    1.6450561    1.6468822 
C    -2.9332446    0.3493662    2.2114161 
H    -3.6998300    1.8966996    0.8941050 
Pd   -1.1043969    0.7026220    0.8988002 
P    -0.9766153   -1.2833543   -0.3087932 
P     1.1255144    1.2496574    0.5459239 
H    -1.3454941    2.4782898    2.8546114 
H    -2.2588830    0.1929331    3.0688951 
C    -1.1947311    6.2414321   -0.2214808 
C    -0.5583958    5.9889043    1.0026027 
C    -0.7805737    4.7852098    1.6820169 
C    -1.6502534    3.8054538    1.1508761 
C    -2.2810942    4.0707357   -0.0884826 
C    -2.0600811    5.2756116   -0.7622393 
H    -1.0207707    7.1838077   -0.7509341 
H     0.1142948    6.7357964    1.4341024 
H    -0.2718820    4.5933410    2.6331275 
H    -2.9402916    3.3213982   -0.5385593 
H    -2.5622618    5.4628888   -1.7172673 
C    -5.7785450   -2.8347451    1.7659146 
C    -4.6429671   -2.9916311    2.5753159 
C    -3.7277208   -1.9429035    2.7021482 
C    -3.9252339   -0.7163443    2.0245693 
C    -5.0676470   -0.5792013    1.2033306 
C    -5.9820897   -1.6286814    1.0763373 
H    -6.5043406   -3.6489075    1.6727624 
H    -4.4722588   -3.9311605    3.1111653 
H    -2.8423290   -2.0685176    3.3338970 
H    -5.2492929    0.3558707    0.6666618 
H    -6.8609682   -1.5054290    0.4359401 
C     1.7161530   -6.2013757   -1.1795488 
C     0.5957347   -6.4238964   -0.1323347 
C     1.0365190   -7.5552294    0.8196713 
C    -0.7020365   -6.8715333   -0.8531115 
C     0.3216779   -5.1043186    0.6180824 
C    -0.1064202   -3.9689019   -0.1004554 
C     0.4736068   -4.9763410    2.0113808 
C     0.2277187   -3.7723056    2.7084851 
C     0.4109113   -3.7026426    4.2366874 
C     0.3374140   -2.2492080    4.7552197 
C    -0.7172086   -4.5321579    4.9034833 
C     1.7888154   -4.2867411    4.6367507 
C    -0.2160005   -2.6710881    1.9639746 
C    -0.3941200   -2.7709184    0.5720501 
C    -2.6248663   -1.6377104   -1.0299064 
C    -3.3257770   -0.5380030   -1.5693082 
C    -4.5620473   -0.7195327   -2.2090337 
C    -5.3332115    0.4493933   -2.8536609 
C    -6.8391400    0.3675178   -2.5005376 
C    -5.1529115    0.3563829   -4.3914280 
C    -4.8080800    1.8196086   -2.3744269 
C    -5.0739166   -2.0321472   -2.2758155 
C    -4.4250062   -3.1409502   -1.7019699 
C    -3.1834249   -2.9226862   -1.0715252 
C    -5.0147072   -4.5595898   -1.8294391 
C    -4.5195184   -5.4823269   -0.6922535 
C    -4.5489773   -5.1421893   -3.1905312 
C    -6.5612247   -4.5311245   -1.7898883 
C     0.1385308   -1.1228504   -1.7744772 
C    -0.4056463   -0.9840113   -3.0659258 
C     0.4287471   -0.8177608   -4.1779582 
C     1.8166491   -0.8291814   -4.0176959 
C     1.5481726   -1.1094540   -1.5903595 
C     2.3653270   -1.0099339   -2.7395250 
C     2.2135797   -1.2539077   -0.2590321 
C     3.0217551   -2.3936330   -0.0432850 
O     3.1756347   -3.3092249   -1.0633517 
C     4.4423814   -3.2367937   -1.7490720 
C     4.3267660   -2.3289806   -2.9719364 
O     3.7394107   -1.0639020   -2.5990735 
C     3.6542195   -2.6259232    1.1871374 
C     3.5485050   -1.6759496    2.2060051 
C     2.8132599   -0.5029692    1.9953753 
C     2.1387730   -0.2838748    0.7787103 
C     1.6587920    1.9123713   -1.0651252 
C     0.6924798    2.3751639   -1.9703966 
C     1.0827910    2.8752425   -3.2268221 
C     0.0570979    3.4053861   -4.2472833 
C     0.4042382    2.9153731   -5.6743787 
C    -1.3718921    2.9255364   -3.9114699 
C     0.0929975    4.9555284   -4.2063406 
C     2.4603514    2.9084736   -3.5156880 
C     3.4521509    2.4408176   -2.6276871 
C     3.0282401    1.9326973   -1.3907600 
C     4.9370989    2.4863434   -3.0344953 
C     5.3600845    3.9649011   -3.2282744 
C     5.1263756    1.7041825   -4.3597456 
C     5.8451745    1.8447039   -1.9640207 
C     1.7382162    2.4158663    1.8228862 
C     1.3365746    2.1980941    3.1545093 
C     1.7598609    3.0492149    4.1887529 
C     1.3143886    2.7595645    5.6361102 
C     1.9508703    1.4192969    6.0888043 
C     1.7504423    3.8706292    6.6137262 
C    -0.2303951    2.6392191    5.6901338 
C     2.6036852    4.1277931    3.8457488 
C     3.0217859    4.3731473    2.5234179 
C     2.5610546    3.5074057    1.5113638 
C     3.9733418    5.5264003    2.1451373 
C     4.4604986    6.3113072    3.3806014 
C     3.2421614    6.5075538    1.1940978 
C     5.2119453    4.9367200    1.4192130 
H     1.9030690   -7.1380449   -1.7348081 
H     1.4484485   -5.4167371   -1.9069039 
H     2.6518139   -5.8856517   -0.6891283 
H     1.2154768   -8.4772254    0.2402013 
H     1.9752387   -7.3046433    1.3446380 
H     0.2631852   -7.7815295    1.5749460 
H    -0.5291936   -7.8156796   -1.3995251 
H    -1.0428065   -6.1187748   -1.5853839 
H    -1.5166180   -7.0382693   -0.1269402 
H    -0.2041941   -4.0103973   -1.1903326 
H     0.8056627   -5.8450728    2.5843202 
H    -0.6584322   -1.7996797    4.5907788 
H     0.5285752   -2.2286057    5.8417817 
H     1.0908423   -1.6100597    4.2622122 
H    -0.6188319   -4.5061689    6.0036057 
H    -0.6806870   -5.5873243    4.5812921 
H    -1.7104971   -4.1301227    4.6349104 
H     2.6055234   -3.7328200    4.1431272 
H     1.9288797   -4.2147372    5.7297220 
H     1.8823158   -5.3507600    4.3609523 
H    -0.4103683   -1.7073321    2.4419006 
H    -2.8812648    0.4600626   -1.4870254 
H    -7.3775654    1.2235361   -2.9433380 
H    -6.9907574    0.3964656   -1.4069076 
H    -7.3096520   -0.5520834   -2.8866261 
H    -4.0854370    0.4370631   -4.6637546 
H    -5.7020318    1.1713748   -4.8964989 
H    -5.5322454   -0.6052952   -4.7784044 
H    -5.4033510    2.6292190   -2.8300059 
H    -3.7561771    1.9847037   -2.6591573 
H    -4.8924712    1.9193070   -1.2771810 
H    -6.0270621   -2.1921451   -2.7858677 
H    -2.6456805   -3.7548735   -0.6130057 
H    -5.0106062   -6.4674841   -0.7718392 
H    -3.4323496   -5.6557893   -0.7431264 
H    -4.7524933   -5.0565251    0.2983863 
H    -3.4466284   -5.1925783   -3.2377185 
H    -4.9489379   -6.1626060   -3.3311668 
H    -4.8981195   -4.5147576   -4.0294913 
H    -6.9261766   -4.0469821   -0.8675678 
H    -6.9544688   -5.5619937   -1.8173955 
H    -6.9931596   -3.9968766   -2.6532494 
H    -1.4890176   -1.0142659   -3.2067036 
H    -0.0090370   -0.6946311   -5.1737348 
H     2.4907173   -0.7102311   -4.8709685 
H     4.7055639   -4.2632886   -2.0581531 
H     5.2174776   -2.8614349   -1.0562436 
H     5.3264518   -2.1136235   -3.3872200 
H     3.7087751   -2.8052703   -3.7545405 
H     4.2333192   -3.5446525    1.3191089 
H     4.0549996   -1.8355699    3.1632806 
H     2.7803736    0.2547599    2.7820164 
H    -0.3613211    2.3258741   -1.6832597 
H     1.3759100    3.3031642   -6.0238456 
H    -0.3628753    3.2623774   -6.3888465 
H     0.4412770    1.8127733   -5.7127148 
H    -2.0771803    3.2714728   -4.6870526 
H    -1.7197719    3.3279467   -2.9460507 
H    -1.4235932    1.8229404   -3.8674000 
H     1.0952942    5.3343903   -4.4726201 
H    -0.6358301    5.3789844   -4.9211785 
H    -0.1531423    5.3238526   -3.1951417 
H     2.7793077    3.3056847   -4.4842905 
H     3.7499443    1.5243184   -0.6794994 
H     6.4224427    4.0239260   -3.5253926 
H     4.7613385    4.4606294   -4.0121098 
H     5.2317176    4.5348265   -2.2907287 
H     4.5365716    2.1414885   -5.1838128 
H     6.1884623    1.7209029   -4.6630726 
H     4.8135526    0.6547314   -4.2258520 
H     5.7897387    2.3839741   -1.0015409 
H     6.8957081    1.8779106   -2.3010775 
H     5.5717332    0.7891552   -1.7924493 
H     0.6830742    1.3465729    3.3794858 
H     3.0528712    1.4791253    6.0572851 
H     1.6469319    1.1786974    7.1232440 
H     1.6350771    0.5833298    5.4401978 
H     2.8491848    3.9654235    6.6629346 
H     1.3934301    3.6319135    7.6302564 
H     1.3283152    4.8507538    6.3299621 
H    -0.5979810    1.7929727    5.0825175 
H    -0.5639731    2.4660953    6.7283519 
H    -0.7129775    3.5620808    5.3227916 
H     2.9471388    4.7949866    4.6367110 
H     2.8473895    3.6830974    0.4711795 
H     5.0092249    5.6630044    4.0864072 
H     3.6228089    6.7858529    3.9215172 
H     5.1465279    7.1147899    3.0619193 
H     2.3925780    6.9872317    1.7094895 
H     3.9338329    7.3022504    0.8623800 
H     2.8522404    5.9966423    0.2966639 
H     4.9318383    4.4241648    0.4825413 
H     5.9199249    5.7440206    1.1605794 
H     5.7368134    4.2095531    2.0632292 
