200
Energy =
C     0.5421254   -2.9003425    2.3789519 
C     0.6391730   -1.8685254    3.3601075 
C    -0.4840606   -1.0640226    3.6612957 
H     1.6242970   -1.5932954    3.7599553 
Pd    0.0658205   -0.9327234    1.4498104 
P    -0.4944935    1.2883197    0.9622401 
P     0.2343677   -1.5157901   -0.7965234 
H    -0.4349035   -3.3945752    2.2770136 
H    -1.4694850   -1.4541121    3.3600058 
C     3.8428362   -5.2602479    0.9424560 
C     4.0415358   -3.9057555    1.2598064 
C     2.9789431   -3.1312687    1.7357609 
C     1.6934507   -3.6931669    1.9036876 
C     1.5109517   -5.0549893    1.5849367 
C     2.5736791   -5.8321221    1.1114298 
H     4.6742408   -5.8639217    0.5638153 
H     5.0278007   -3.4503228    1.1274663 
H     3.1362248   -2.0695959    1.9572326 
H     0.5219850   -5.5045703    1.7096437 
H     2.4046715   -6.8862816    0.8704618 
C    -0.7075783    2.0906904    6.5692756 
C    -1.6917203    1.9595875    5.5774101 
C    -1.6103766    0.9268270    4.6393784 
C    -0.5297863    0.0153886    4.6591168 
C     0.4507703    0.1531784    5.6671251 
C     0.3553416    1.1755538    6.6173593 
H    -0.7735512    2.8959565    7.3078660 
H    -2.5264611    2.6665350    5.5330653 
H    -2.3766998    0.8347051    3.8612381 
H     1.2728467   -0.5667275    5.7329601 
H     1.1075609    1.2507085    7.4091460 
C    -0.1073467    7.0642490    3.3790532 
C    -0.9096308    5.8357844    3.8812442 
C    -2.3204037    5.8823864    3.2557292 
C    -1.0575399    5.9086806    5.4223610 
C    -0.1475312    4.5534817    3.4922966 
C    -0.6761877    3.6129041    2.5916833 
C     1.1349855    4.3071384    4.0226609 
C     1.8887402    3.1569413    3.7157741 
C     3.3169857    2.9839933    4.2692610 
C     3.3752038    3.3454575    5.7730810 
C     3.8264703    1.5350276    4.1007522 
C     4.2478594    3.9403302    3.4770535 
C     1.3162408    2.2248925    2.8323849 
C     0.0573661    2.4646077    2.2532322 
C    -2.2926262    1.5046924    0.7237416 
C    -2.8236461    2.6803496    0.1647836 
C    -4.2117143    2.8186326   -0.0035821 
C    -4.8431692    4.0885508   -0.6046010 
C    -5.7341295    4.7640582    0.4688804 
C    -5.7041782    3.6945076   -1.8318254 
C    -3.7725175    5.0988126   -1.0686185 
C    -5.0328358    1.7407019    0.3872789 
C    -4.5266862    0.5360519    0.9141077 
C    -3.1359853    0.4399312    1.0822496 
C    -5.4773694   -0.6199161    1.2785720 
C    -4.7022277   -1.8773837    1.7282490 
C    -6.4036737   -0.1655597    2.4352081 
C    -6.3306647   -0.9949007    0.0402522 
C     0.2584770    1.9895647   -0.5736908 
C     1.2533994    2.9830562   -0.4807614 
C     1.8310485    3.5156100   -1.6390497 
C     1.4297981    3.0694462   -2.9017855 
C    -0.1633411    1.5258012   -1.8440282 
C     0.4321057    2.0883938   -3.0000123 
C    -1.2704824    0.5444891   -2.0650688 
C    -2.4256707    1.0337411   -2.7272904 
O    -2.4626528    2.3733393   -3.0141823 
C    -2.6862137    2.7977369   -4.3780756 
C    -1.4256767    3.4803980   -4.9152671 
C    -0.2902872    2.5163423   -5.2701482 
O     0.0034214    1.5908131   -4.2056265 
C    -3.5075447    0.1951681   -3.0311602 
C    -3.4268805   -1.1652370   -2.7194802 
C    -2.2894684   -1.6787009   -2.0858261 
C    -1.2117207   -0.8366771   -1.7418384 
C     1.7203758   -0.8985610   -1.6620992 
C     1.7803518   -0.9565092   -3.0696131 
C     2.9340031   -0.5372161   -3.7446260 
C     3.0515758   -0.5773229   -5.2801621 
C     1.7685253   -1.1260100   -5.9390997 
C     4.2428807   -1.4839985   -5.6814494 
C     3.2944513    0.8614536   -5.8030826 
C     4.0135077   -0.0534707   -2.9693387 
C     3.9771015    0.0298089   -1.5676425 
C     2.8014418   -0.4062977   -0.9202586 
C     5.1535114    0.5766050   -0.7334759 
C     6.3746201    0.9319008   -1.6067479 
C     5.5891796   -0.4899093    0.3025830 
C     4.6955025    1.8548490    0.0118404 
C     0.1971588   -3.3264127   -1.1033218 
C    -0.8413925   -4.0850829   -0.5262684 
C    -0.9566036   -5.4605914   -0.7864567 
C    -2.1154850   -6.3108863   -0.2288845 
C    -2.9971276   -5.5132852    0.7551797 
C    -1.5566360   -7.5509827    0.5138167 
C    -2.9981967   -6.7754595   -1.4166590 
C     0.0229278   -6.0548692   -1.6094015 
C     1.1078564   -5.3385628   -2.1467551 
C     1.1787089   -3.9575588   -1.8817369 
C     2.1368833   -6.0345110   -3.0600969 
C     2.5978559   -7.3792755   -2.4468641 
C     1.4558605   -6.2986547   -4.4289822 
C     3.3882342   -5.1569825   -3.2843163 
H    -0.6332816    7.9992521    3.6425656 
H     0.0119609    7.0309800    2.2817302 
H     0.8992057    7.1037469    3.8302274 
H    -2.8382118    6.8032441    3.5745092 
H    -2.2801732    5.8893793    2.1521111 
H    -2.9371981    5.0225904    3.5732245 
H    -1.5848471    6.8352960    5.7105146 
H    -0.0777558    5.9079754    5.9300090 
H    -1.6370925    5.0498033    5.8015593 
H    -1.6635154    3.7637779    2.1527831 
H     1.5660908    5.0455803    4.7056315 
H     4.3991603    3.1938540    6.1571100 
H     3.1091828    4.4000866    5.9571412 
H     2.6867884    2.7120007    6.3561224 
H     3.1486647    0.8147295    4.5917355 
H     3.9284945    1.2505646    3.0391986 
H     4.8239382    1.4350862    4.5619874 
H     4.2228950    3.7075396    2.3984433 
H     3.9370074    4.9917703    3.6061689 
H     5.2908826    3.8443655    3.8293631 
H     1.8488528    1.3057466    2.5676267 
H    -2.1420062    3.4661383   -0.1673914 
H    -5.1331239    5.0525559    1.3494908 
H    -6.5389854    4.0906769    0.8117195 
H    -6.2059095    5.6747928    0.0584951 
H    -5.0829814    3.1720174   -2.5788643 
H    -6.5383714    3.0277339   -1.5539303 
H    -6.1381344    4.5954022   -2.3008689 
H    -3.1586528    5.4597972   -0.2244420 
H    -4.2630361    5.9783294   -1.5200963 
H    -3.1010787    4.6510912   -1.8211413 
H    -6.1158198    1.8376612    0.2563110 
H    -2.6789650   -0.4767024    1.4654745 
H    -4.0146844   -2.2314072    0.9393547 
H    -5.4104674   -2.6939542    1.9502906 
H    -4.1142514   -1.6916636    2.6451766 
H    -7.0054005    0.7141978    2.1485037 
H    -7.0997865   -0.9773054    2.7122855 
H    -5.8119429    0.1032664    3.3280970 
H    -6.9502005   -0.1484186   -0.3021787 
H    -7.0107649   -1.8303697    0.2841861 
H    -5.6824704   -1.3041050   -0.7977576 
H     1.5705138    3.3510018    0.4977433 
H     2.6015707    4.2888608   -1.5553756 
H     1.8881773    3.4786447   -3.8061636 
H    -2.9750380    1.9313409   -5.0015706 
H    -3.5278597    3.5113848   -4.3594850 
H    -1.6843139    4.0516307   -5.8266745 
H    -1.0836136    4.2137867   -4.1626742 
H     0.6164977    3.0747119   -5.5722217 
H    -0.5740638    1.8635944   -6.1117745 
H    -4.3989135    0.6138672   -3.5075204 
H    -4.2552651   -1.8349622   -2.9723996 
H    -2.2364792   -2.7490778   -1.8771804 
H     0.9099858   -1.3183554   -3.6216413 
H     1.8842149   -1.1240931   -7.0368017 
H     1.5638235   -2.1662487   -5.6278675 
H     0.8915758   -0.5063684   -5.6840742 
H     4.0922041   -2.5146009   -5.3153944 
H     4.3418470   -1.5194273   -6.7810415 
H     5.1973354   -1.1132152   -5.2693117 
H     4.2277704    1.2917933   -5.4010045 
H     3.3699391    0.8617960   -6.9051409 
H     2.4593656    1.5184109   -5.5088949 
H     4.9139630    0.2769563   -3.4925874 
H     2.7111467   -0.3547345    0.1704742 
H     6.7579081    0.0507325   -2.1507369 
H     6.1360045    1.7196658   -2.3428214 
H     7.1899790    1.3114412   -0.9669238 
H     6.4463615   -0.1208293    0.8932166 
H     5.8901655   -1.4251724   -0.2002954 
H     4.7750246   -0.7271320    1.0080384 
H     3.8095268    1.6640911    0.6411816 
H     4.4282275    2.6497916   -0.7038278 
H     5.5053347    2.2286227    0.6635355 
H    -1.5633780   -3.5851421    0.1258201 
H    -2.4137145   -5.1402826    1.6168465 
H    -3.7964480   -6.1630228    1.1509590 
H    -3.4839578   -4.6509371    0.2669833 
H    -2.3866526   -8.1691953    0.8988824 
H    -0.9457420   -8.1875972   -0.1482536 
H    -0.9291770   -7.2515314    1.3717720 
H    -3.4101329   -5.9070146   -1.9607277 
H    -3.8417857   -7.3888133   -1.0525066 
H    -2.4207965   -7.3829256   -2.1347404 
H    -0.0604197   -7.1235465   -1.8306354 
H     2.0001329   -3.3653967   -2.2863347 
H     1.7589298   -8.0801031   -2.2970170 
H     3.3211530   -7.8710240   -3.1207261 
H     3.0897971   -7.2173441   -1.4730572 
H     2.1603338   -6.7948181   -5.1206288 
H     1.1254901   -5.3510315   -4.8904681 
H     0.5705940   -6.9487449   -4.3157010 
H     3.8703004   -4.8925575   -2.3263639 
H     3.1474700   -4.2218404   -3.8191654 
H     4.1223935   -5.7071322   -3.8977465 
