200
Energy =
C     3.4455349    0.2617156    1.4278619 
C     3.4271420    1.5718484    0.8549758 
C     2.5079326    2.5522577    1.2884531 
H     4.0035352    1.7667465   -0.0583903 
Pd    1.4310013    0.6652817    0.5881065 
P    -0.4255835    1.5228230   -0.5274370 
P     0.4772504   -1.4471322    0.8351043 
H     3.2010050    0.1662352    2.4941067 
H     2.0304324    2.4010847    2.2702908 
C     5.6736308   -3.0427080   -0.2114568 
C     5.3683221   -1.9350442   -1.0206447 
C     4.6465455   -0.8584830   -0.4980429 
C     4.2203600   -0.8552080    0.8521670 
C     4.5368113   -1.9741744    1.6544701 
C     5.2547313   -3.0544698    1.1265536 
H     6.2356346   -3.8874751   -0.6227169 
H     5.6927359   -1.9133157   -2.0662996 
H     4.3992488   -0.0145685   -1.1514807 
H     4.2095253   -1.9961601    2.6995147 
H     5.4900176   -3.9096879    1.7675684 
C     2.0818943    6.5292398   -0.2863728 
C     1.0683178    5.9568359    0.4976255 
C     1.2224040    4.6660875    1.0099616 
C     2.3875926    3.9125953    0.7395620 
C     3.4070640    4.5064348   -0.0379845 
C     3.2552444    5.8029574   -0.5416475 
H     1.9644950    7.5418259   -0.6859691 
H     0.1514401    6.5162838    0.7071034 
H     0.4198478    4.2214125    1.6063272 
H     4.3404257    3.9651411   -0.2214022 
H     4.0632336    6.2556461   -1.1252932 
C     2.7117695   -1.1677105   -4.0358928 
C     2.2049964   -2.6242912   -4.1037862 
C     3.4227845   -3.5826073   -4.1600688 
C     1.3628131   -2.7789959   -5.3944050 
C     1.3588279   -2.9872319   -2.8682322 
C     1.3132148   -2.1715508   -1.7237127 
C     0.6131553   -4.1814515   -2.8457886 
C    -0.1922931   -4.5734553   -1.7567701 
C    -1.0034184   -5.8806410   -1.8311724 
C    -1.8829070   -6.0813622   -0.5791444 
C    -1.9287616   -5.8302635   -3.0739273 
C    -0.0270016   -7.0779989   -1.9532649 
C    -0.2322164   -3.7266055   -0.6381945 
C     0.5270290   -2.5421846   -0.6214505 
C     1.2398361   -2.3682906    2.2256138 
C     1.6700888   -3.7000144    2.1005506 
C     2.2578408   -4.3658051    3.1908377 
C     2.6707856   -5.8484351    3.1004603 
C     1.6021673   -6.6845182    3.8539021 
C     4.0536242   -6.0774802    3.7586052 
C     2.7438853   -6.3342069    1.6355581 
C     2.4112636   -3.6527614    4.3994277 
C     2.0100145   -2.3113963    4.5497505 
C     1.4242653   -1.6798884    3.4367681 
C     2.1645792   -1.5301120    5.8692343 
C     0.7507324   -1.2718631    6.4528073 
C     2.9980538   -2.3051321    6.9109323 
C     2.8657363   -0.1750047    5.5940791 
C    -1.3163823   -1.3274475    1.2860671 
C    -1.7390820   -1.5546468    2.6111740 
C    -3.0894490   -1.4249453    2.9573373 
C    -4.0405162   -1.0788163    1.9925407 
C    -2.2669499   -0.9756181    0.2942827 
C    -3.6298933   -0.8728028    0.6672720 
C    -1.9475867   -0.7891409   -1.1544366 
C    -2.4983053   -1.7273963   -2.0618513 
O    -3.2018162   -2.7759320   -1.5285897 
C    -4.5677810   -2.9953366   -1.9481231 
C    -5.5135484   -2.7389652   -0.7714743 
C    -5.7396944   -1.2583636   -0.4534881 
O    -4.5061668   -0.5236944   -0.3301928 
C    -2.2830300   -1.6173908   -3.4436997 
C    -1.5409318   -0.5406229   -3.9401543 
C    -1.0016090    0.4108768   -3.0661978 
C    -1.1969043    0.2947018   -1.6746885 
C    -1.7772754    2.1011940    0.5534942 
C    -3.0623094    2.3737038    0.0439402 
C    -4.0722061    2.8450764    0.8946651 
C    -5.4903099    3.1661013    0.3863710 
C    -6.5187634    2.3244398    1.1840723 
C    -5.6521175    2.8378929   -1.1128481 
C    -5.7718292    4.6759573    0.5973617 
C    -3.7590412    3.0240368    2.2627711 
C    -2.4942186    2.7369611    2.8030896 
C    -1.5047365    2.2660126    1.9179087 
C    -2.1486375    2.9161233    4.2945054 
C    -0.9974397    3.9470978    4.4245315 
C    -1.6848855    1.5570865    4.8774614 
C    -3.3534554    3.4172269    5.1164262 
C     0.0360073    2.8966758   -1.6483377 
C     1.2726248    2.7765870   -2.3146860 
C     1.6451296    3.6959645   -3.3059339 
C     2.9361863    3.5200587   -4.1297908 
C     3.9377590    2.5723789   -3.4325217 
C     3.6383030    4.8801296   -4.3585625 
C     2.5414941    2.9071621   -5.4999705 
C     0.7532006    4.7568910   -3.5830389 
C    -0.4702383    4.9224204   -2.9104669 
C    -0.8185272    3.9681052   -1.9326598 
C    -1.4484989    6.0738119   -3.2183358 
C    -2.7901392    5.4712282   -3.7117517 
C    -1.6980677    6.8973890   -1.9290779 
C    -0.9084743    7.0245635   -4.3065900 
H     3.2693631   -0.9193730   -4.9554927 
H     3.3938330   -1.0133393   -3.1833256 
H     1.8725909   -0.4556225   -3.9426175 
H     4.0643039   -3.3426486   -5.0273198 
H     4.0281050   -3.4974073   -3.2411942 
H     3.0976816   -4.6333357   -4.2557083 
H     1.9647536   -2.4930656   -6.2750077 
H     0.4699385   -2.1317754   -5.3575655 
H     1.0259540   -3.8181250   -5.5485593 
H     1.8699749   -1.2318310   -1.6757245 
H     0.6496470   -4.8334253   -3.7245516 
H    -2.4648431   -7.0139713   -0.6786818 
H    -1.2737394   -6.1671385    0.3385837 
H    -2.5913296   -5.2445523   -0.4509466 
H    -2.5963227   -4.9545434   -3.0127090 
H    -1.3532634   -5.7578281   -4.0127918 
H    -2.5470644   -6.7438916   -3.1293351 
H    -0.5893826   -8.0267064   -2.0167984 
H     0.6045907   -6.9979084   -2.8550500 
H     0.6404952   -7.1297395   -1.0750744 
H    -0.8690822   -3.9614353    0.2176240 
H     1.5511875   -4.2092877    1.1433084 
H     0.6056355   -6.5468197    3.3982951 
H     1.5367117   -6.3844060    4.9144558 
H     1.8562988   -7.7590805    3.8155167 
H     4.8327194   -5.4651757    3.2725277 
H     4.0497068   -5.8332679    4.8343247 
H     4.3434418   -7.1385219    3.6642812 
H     1.7573957   -6.3048883    1.1405571 
H     3.0930580   -7.3806962    1.6085737 
H     3.4451689   -5.7225853    1.0406724 
H     2.8630167   -4.1652135    5.2513563 
H     1.1045546   -0.6333187    3.5073133 
H     0.1244497   -0.6955855    5.7500696 
H     0.8205588   -0.6987578    7.3948012 
H     0.2360425   -2.2251442    6.6653545 
H     4.0110239   -2.5314305    6.5338724 
H     3.1060671   -1.6980840    7.8261411 
H     2.5138573   -3.2540735    7.2002322 
H     3.8575189   -0.3296819    5.1333117 
H     3.0080627    0.3793962    6.5382465 
H     2.2702981    0.4692302    4.9226547 
H    -1.0176566   -1.8508357    3.3760397 
H    -3.4025603   -1.6015855    3.9915035 
H    -5.0941199   -0.9699269    2.2639902 
H    -4.8072220   -2.3465470   -2.8110271 
H    -4.6398106   -4.0480501   -2.2716093 
H    -6.4979755   -3.1926221   -0.9928020 
H    -5.1100387   -3.2631388    0.1138578 
H    -6.2632755   -0.7518003   -1.2807177 
H    -6.3618688   -1.1440787    0.4547568 
H    -2.6919404   -2.3778579   -4.1155189 
H    -1.3794478   -0.4395113   -5.0181951 
H    -0.4351645    1.2534600   -3.4705583 
H    -3.2652907    2.1831366   -1.0121210 
H    -7.5422411    2.5247075    0.8203765 
H    -6.3083140    1.2485536    1.0616013 
H    -6.4944449    2.5576129    2.2623389 
H    -5.4405362    1.7739475   -1.3145721 
H    -6.6871931    3.0518776   -1.4305468 
H    -4.9805006    3.4511990   -1.7394669 
H    -5.0448835    5.2904872    0.0368284 
H    -6.7862068    4.9301643    0.2414345 
H    -5.7066173    4.9583499    1.6624970 
H    -4.5447639    3.3918147    2.9272415 
H    -0.5077381    2.0014090    2.2883644 
H    -0.0792019    3.5974496    3.9200152 
H    -1.2823794    4.9164118    3.9795699 
H    -0.7498866    4.1136588    5.4879500 
H    -1.4032579    1.6709584    5.9393773 
H    -0.8088856    1.1601586    4.3354219 
H    -2.4880968    0.8045155    4.8073641 
H    -4.1999248    2.7095336    5.0703298 
H    -3.7045155    4.4039761    4.7668467 
H    -3.0632398    3.5230208    6.1759243 
H     1.9264053    1.9364371   -2.0574266 
H     4.1985108    2.9415464   -2.4254883 
H     4.8668951    2.5100698   -4.0244729 
H     3.5416153    1.5474273   -3.3373088 
H     4.5781946    4.7290976   -4.9176727 
H     3.0162658    5.5759782   -4.9463290 
H     3.8796849    5.3645788   -3.3974442 
H     2.0552516    1.9248633   -5.3630820 
H     3.4362916    2.7655312   -6.1327450 
H     1.8379930    3.5646082   -6.0399973 
H     1.0303376    5.4764737   -4.3559803 
H    -1.7640577    4.0606729   -1.3912865 
H    -3.2508094    4.8226422   -2.9460972 
H    -3.5078624    6.2772323   -3.9472570 
H    -2.6373059    4.8662323   -4.6225142 
H    -2.4228563    7.7066159   -2.1288038 
H    -0.7598817    7.3548541   -1.5714703 
H    -2.1056738    6.2721701   -1.1152152 
H    -1.6370495    7.8334292   -4.4875331 
H    -0.7479505    6.5007352   -5.2653074 
H     0.0436972    7.4939089   -4.0018175 
