206
Energy =
C    -0.8120986   -3.7243492    0.6388564 
C    -2.1458243   -3.2572329    0.5886333 
C    -2.6694817   -2.6970956   -0.6202316 
H    -2.7137908   -3.1631031    1.5223532 
Pd   -0.8995358   -1.5316955    0.0304962 
P    -0.9361378    0.2233644   -1.5075540 
P     0.8194802   -0.6353733    1.3026918 
H    -0.3341353   -3.9507496   -0.3278728 
H    -2.2991155   -3.1062261   -1.5695740 
C     1.3990991   -5.3110065    3.9623956 
C     1.9979703   -5.1596503    2.7029289 
C     1.2571764   -4.6418217    1.6372425 
C    -0.0948575   -4.2607334    1.8032503 
C    -0.6811442   -4.4118053    3.0804116 
C     0.0602751   -4.9304294    4.1464727 
H     1.9718346   -5.7266536    4.7974774 
H     3.0431759   -5.4479248    2.5498497 
H     1.7281944   -4.5223217    0.6583757 
H    -1.7257709   -4.1321580    3.2427778 
H    -0.4087350   -5.0391542    5.1293120 
C    -6.3869219   -0.5451272   -0.9441136 
C    -5.8103246   -0.7549909    0.3198858 
C    -4.6063160   -1.4550511    0.4385201 
C    -3.9547068   -1.9786922   -0.7040820 
C    -4.5502041   -1.7673680   -1.9685200 
C    -5.7501531   -1.0550838   -2.0848447 
H    -7.3265377    0.0091677   -1.0363347 
H    -6.3011019   -0.3650077    1.2177856 
H    -4.1602936   -1.5839552    1.4301125 
H    -4.0595443   -2.1612012   -2.8654148 
H    -6.1933372   -0.9011233   -3.0737404 
C    -2.5819184   -2.6669806    6.4487914 
C    -2.3589635   -1.4651276    5.4981978 
C    -3.4474777   -1.5184773    4.4045939 
C    -2.5117578   -0.1398400    6.2898675 
C    -0.9390254   -1.5013601    4.8982457 
C    -0.6921056   -1.2078606    3.5474361 
C     0.1732507   -1.7925063    5.7139983 
C     1.4919383   -1.8442718    5.2246307 
C     2.6722825   -2.1343175    6.1728453 
C     3.0013095   -0.8213972    6.9322832 
C     2.3080363   -3.2369177    7.1963405 
C     3.9271722   -2.5897548    5.3947074 
C     1.7017364   -1.5467388    3.8639472 
C     0.6235560   -1.1988118    3.0388073 
C     2.5301038   -0.9828167    0.7683893 
C     3.6256555   -0.3534907    1.3923886 
C     4.9366824   -0.6946044    1.0275680 
C     6.1697490   -0.0928301    1.7299035 
C     6.8859598   -1.2195533    2.5198218 
C     5.7767484    1.0306899    2.7126809 
C     7.1468252    0.4937290    0.6805449 
C     5.1097115   -1.6531383    0.0028697 
C     4.0367574   -2.2637456   -0.6700905 
C     2.7339453   -1.9119574   -0.2625415 
C     4.2422136   -3.2523225   -1.8372638 
C     5.7169474   -3.6834580   -1.9819508 
C     3.3863537   -4.5254068   -1.6232784 
C     3.7957161   -2.5585807   -3.1487681 
C     0.6725225    1.2019231    1.4343328 
C     0.1944803    1.7961861    2.6205584 
C     0.0098180    3.1807551    2.6823661 
C     0.3042421    3.9925444    1.5825452 
C     0.9726436    2.0041357    0.3079818 
C     0.7959801    3.4104769    0.4008191 
C     1.5390144    1.4787497   -0.9712045 
C     2.8778166    1.8360118   -1.2786686 
O     3.5382006    2.5341408   -0.3101794 
C     4.6995537    3.3004693   -0.6814110 
C     4.3541499    4.5304563   -1.5372535 
C     4.0090917    5.8050027   -0.7460461 
C     2.7637630    5.7605526    0.1578514 
C     1.4322790    5.5215571   -0.5744739 
O     1.1195053    4.1229001   -0.7171873 
C     3.4492050    1.4739765   -2.5118620 
C     2.6842165    0.7706324   -3.4469461 
C     1.3635593    0.4061865   -3.1654428 
C     0.7869140    0.7533678   -1.9272858 
C    -1.8217121    1.7607871   -1.0851802 
C    -2.5955330    1.8039819    0.0861410 
C    -3.2900267    2.9768478    0.4316853 
C    -4.1423129    3.0886672    1.7102258 
C    -3.7649526    4.3744471    2.4876561 
C    -3.9239199    1.8805276    2.6442035 
C    -5.6373333    3.1458494    1.3024305 
C    -3.2096703    4.0678069   -0.4557630 
C    -2.4411330    4.0534055   -1.6371841 
C    -1.7221456    2.8822274   -1.9299529 
C    -2.4460986    5.2752273   -2.5772738 
C    -1.3971496    5.1346333   -3.7008357 
C    -3.8549108    5.3923426   -3.2162918 
C    -2.1425799    6.5698605   -1.7832887 
C    -1.6238426   -0.3989174   -3.0915560 
C    -1.1557430   -1.6496809   -3.5294737 
C    -1.6389042   -2.2372428   -4.7127426 
C    -1.0831739   -3.6038906   -5.1589801 
C     0.4251691   -3.4445486   -5.4825448 
C    -1.2573004   -4.6306934   -4.0100644 
C    -1.8045133   -4.1452558   -6.4104466 
C    -2.6130404   -1.5254253   -5.4374514 
C    -3.1134830   -0.2727037   -5.0201903 
C    -2.6082955    0.2808870   -3.8295821 
C    -4.1583162    0.4608069   -5.8842513 
C    -5.3403724   -0.4843719   -6.2158960 
C    -3.4721637    0.9058852   -7.2028479 
C    -4.7170848    1.7108658   -5.1722314 
H    -2.4409995   -3.6237501    5.9155019 
H    -1.8947918   -2.6518814    7.3113292 
H    -3.6109334   -2.6460158    6.8481553 
H    -3.3584099   -2.4353146    3.7944785 
H    -3.4027091   -0.6474452    3.7316409 
H    -4.4474167   -1.5228870    4.8709266 
H    -3.5149380   -0.0746585    6.7485306 
H    -1.7597008   -0.0702134    7.0950032 
H    -2.3790233    0.7300106    5.6220796 
H    -1.5184188   -0.9651880    2.8700613 
H     0.0020592   -1.9991345    6.7736990 
H     3.8453028   -0.9783193    7.6280798 
H     2.1318035   -0.4737863    7.5174327 
H     3.2783485   -0.0195318    6.2249558 
H     1.4873488   -2.9295192    7.8664240 
H     3.1813956   -3.4612403    7.8331627 
H     2.0038841   -4.1665715    6.6862710 
H     3.7132529   -3.4718453    4.7664742 
H     4.3189848   -1.7907451    4.7419877 
H     4.7301439   -2.8553213    6.1035117 
H     2.7081266   -1.5756799    3.4430904 
H     3.4355983    0.4040629    2.1560627 
H     7.7740474   -0.8184255    3.0402908 
H     7.2214697   -2.0306777    1.8505226 
H     6.2117790   -1.6596931    3.2748807 
H     6.6845086    1.4652903    3.1654868 
H     5.2267909    1.8397318    2.2007205 
H     5.1452852    0.6527265    3.5364309 
H     6.6584374    1.2868132    0.0902446 
H     7.5119973   -0.2766520   -0.0197558 
H     8.0275623    0.9302723    1.1837889 
H     6.1297857   -1.9220768   -0.2816799 
H     1.8568352   -2.3461246   -0.7555096 
H     5.8117911   -4.4112080   -2.8062213 
H     6.0924082   -4.1640487   -1.0612480 
H     6.3734257   -2.8287690   -2.2210282 
H     3.6531003   -5.0301528   -0.6784074 
H     2.3059133   -4.2971534   -1.6033048 
H     3.5530307   -5.2372311   -2.4506659 
H     3.8973079   -3.2490187   -4.0054837 
H     2.7440174   -2.2306020   -3.0894406 
H     4.4105859   -1.6640858   -3.3447692 
H    -0.0191346    1.1828875    3.4985808 
H    -0.3582550    3.6372134    3.6070050 
H     0.1574892    5.0725510    1.6522420 
H     5.4275157    2.6472529   -1.1960393 
H     5.1497090    3.5927062    0.2814194 
H     5.2266745    4.7531709   -2.1787805 
H     3.5315169    4.2586111   -2.2249346 
H     4.8807063    6.0763289   -0.1197014 
H     3.8883687    6.6355382   -1.4680098 
H     2.8731372    4.9895346    0.9433036 
H     2.6930562    6.7281301    0.6880272 
H     0.5988732    6.0405530   -0.0676841 
H     1.4662903    5.8976736   -1.6099514 
H     4.4782569    1.7495930   -2.7526541 
H     3.1247101    0.5047978   -4.4132487 
H     0.7793662   -0.1292365   -3.9172746 
H    -2.6314785    0.9153157    0.7218463 
H    -4.3578611    4.4429403    3.4169470 
H    -2.6948117    4.3668996    2.7564112 
H    -3.9636449    5.2870301    1.9002807 
H    -4.5158088    2.0054022    3.5675266 
H    -2.8616350    1.7811576    2.9298233 
H    -4.2454222    0.9398100    2.1677641 
H    -6.2798514    3.2129083    2.1989985 
H    -5.9200286    2.2428234    0.7343849 
H    -5.8452585    4.0251043    0.6680430 
H    -3.7726152    4.9751045   -0.2142009 
H    -1.0767602    2.8271980   -2.8098242 
H    -1.6184554    4.2791417   -4.3634085 
H    -1.3944874    6.0439167   -4.3263321 
H    -0.3821545    4.9968099   -3.2880724 
H    -4.1034132    4.4827640   -3.7894694 
H    -3.8950853    6.2570461   -3.9028579 
H    -4.6341223    5.5310171   -2.4465470 
H    -2.1445689    7.4402541   -2.4629540 
H    -1.1532379    6.5124477   -1.3004981 
H    -2.8945325    6.7607099   -0.9988166 
H    -0.4004510   -2.1719263   -2.9291183 
H     0.9932928   -3.0937902   -4.6034261 
H     0.5759687   -2.7156074   -6.2979196 
H     0.8549756   -4.4117000   -5.7992380 
H    -2.3202616   -4.7329688   -3.7288166 
H    -0.8868220   -5.6224366   -4.3237478 
H    -0.6896489   -4.3374500   -3.1085343 
H    -2.8862335   -4.2773799   -6.2316671 
H    -1.3864751   -5.1291698   -6.6840608 
H    -1.6735901   -3.4763636   -7.2789438 
H    -3.0033948   -1.9576012   -6.3616298 
H    -2.9846010    1.2358742   -3.4598837 
H    -6.0924131    0.0493405   -6.8231506 
H    -5.0161963   -1.3677386   -6.7918304 
H    -5.8328912   -0.8416529   -5.2951871 
H    -3.0822303    0.0399770   -7.7657880 
H    -2.6269746    1.5852432   -6.9941494 
H    -4.1927751    1.4371878   -7.8501203 
H    -5.1867962    1.4555986   -4.2058867 
H    -3.9273889    2.4591112   -4.9846602 
H    -5.4820806    2.1904554   -5.8066152 
