200
Energy =
C     0.7894797   -2.8564997    2.2576260 
C     0.6583952   -1.8549658    3.2759943 
C    -0.5894775   -1.2260342    3.4884949 
H     1.5536782   -1.4506798    3.7641823 
Pd    0.1280014   -0.9586181    1.3423589 
P    -0.3182252    1.2927556    0.9747082 
P     0.1469839   -1.5041120   -0.9212629 
H    -0.0776578   -3.5033816    2.0697025 
H    -1.4754337   -1.7589604    3.1070260 
C     4.5265810   -4.4075175    0.7775333 
C     4.5126722   -3.2205844    1.5294573 
C     3.3075760   -2.7116154    2.0223311 
C     2.0841044   -3.3851026    1.7877305 
C     2.1143407   -4.5823970    1.0365643 
C     3.3218520   -5.0835425    0.5355096 
H     5.4703296   -4.8017948    0.3870344 
H     5.4478525   -2.6862750    1.7273536 
H     3.3167189   -1.7711974    2.5832363 
H     1.1783113   -5.1157984    0.8377736 
H     3.3211258   -6.0108378   -0.0458162 
C    -1.6375560    2.0081148    6.1107532 
C    -2.6005591    1.4060099    5.2871570 
C    -2.2357015    0.3499485    4.4477266 
C    -0.9031150   -0.1246351    4.4069820 
C     0.0561989    0.4969253    5.2389134 
C    -0.3097079    1.5517092    6.0801874 
H    -1.9212111    2.8284213    6.7776971 
H    -3.6376432    1.7571274    5.3011712 
H    -2.9893453   -0.1167503    3.8057616 
H     1.0937487    0.1521541    5.2337159 
H     0.4460407    2.0240562    6.7152958 
C     0.3587908    6.6981030    3.6733911 
C    -0.2921088    5.4892373    4.3966835 
C    -1.8145519    5.5073596    4.1315337 
C    -0.0629038    5.6243439    5.9219677 
C     0.3655431    4.2056113    3.8526025 
C    -0.2705181    3.4087618    2.8819401 
C     1.6593983    3.8325063    4.2646261 
C     2.3215401    2.6860267    3.7801578 
C     3.7329811    2.3276801    4.2865111 
C     4.1197966    0.8754428    3.9323901 
C     4.7460397    3.2918937    3.6158030 
C     3.8119036    2.4780862    5.8259596 
C     1.6607104    1.9197397    2.8057409 
C     0.3837159    2.2934004    2.3398909 
C    -2.0758165    1.7294665    0.7701433 
C    -2.4716848    3.0104173    0.3480999 
C    -3.8353532    3.3140275    0.2008021 
C    -4.3220637    4.7032711   -0.2527218 
C    -5.1270814    5.3551986    0.9004704 
C    -5.2282396    4.5459786   -1.5001655 
C    -3.1447341    5.6295954   -0.6242780 
C    -4.7701282    2.2943420    0.4771072 
C    -4.4000112    0.9900467    0.8604087 
C    -3.0288860    0.7255796    1.0055074 
C    -5.4705634   -0.0854350    1.1276745 
C    -4.8431217   -1.4897501    1.2734975 
C    -6.2134420    0.2745158    2.4402163 
C    -6.4821364   -0.1325778   -0.0446705 
C     0.5228234    1.9510353   -0.5322268 
C     1.6491142    2.7909031   -0.4226301 
C     2.3037913    3.2504596   -1.5722766 
C     1.8413162    2.8897848   -2.8422425 
C     0.0437181    1.5717825   -1.8110003 
C     0.7057278    2.0733817   -2.9571560 
C    -1.1776884    0.7380927   -2.0370237 
C    -2.2852054    1.3822594   -2.6410538 
O    -2.1434836    2.7253076   -2.8854744 
C    -2.5328612    3.2330238   -4.1764922 
C    -1.7121340    2.6310290   -5.3208871 
C    -0.1947882    2.6993486   -5.1237596 
O     0.2227822    1.6861244   -4.1803981 
C    -3.4657080    0.6819408   -2.9312947 
C    -3.5335404   -0.6879386   -2.6566993 
C    -2.4431719   -1.3544625   -2.0842841 
C    -1.2649408   -0.6507369   -1.7633544 
C     1.6170300   -1.0805783   -1.9098080 
C     1.5592934   -1.1435233   -3.3142399 
C     2.6880082   -0.8163521   -4.0810809 
C     2.6813092   -0.8626674   -5.6205021 
C     3.7109054   -1.9163877   -6.1017283 
C     3.0657797    0.5353625   -6.1689154 
C     1.2908010   -1.2351724   -6.1764155 
C     3.8519786   -0.4153821   -3.3932212 
C     3.9288173   -0.3165956   -1.9907513 
C     2.7865283   -0.6712371   -1.2505161 
C     5.2362749    0.1380223   -1.3141878 
C     6.2594718   -1.0238394   -1.4046402 
C     5.0089411    0.4945794    0.1703886 
C     5.8054263    1.3900002   -2.0261740 
C    -0.1619731   -3.2955247   -1.1571159 
C     0.6295341   -4.0907427   -2.0038679 
C     0.3854637   -5.4705626   -2.1193928 
C     1.2013572   -6.3602578   -3.0781690 
C     2.4542958   -5.6315846   -3.6119671 
C     0.2915949   -6.7352990   -4.2779321 
C     1.6594429   -7.6542208   -2.3601870 
C    -0.6658805   -6.0252339   -1.3572453 
C    -1.4649980   -5.2583503   -0.4879316 
C    -1.1889354   -3.8813878   -0.3975631 
C    -2.6191506   -5.8539310    0.3420677 
C    -2.4455161   -5.4602082    1.8317497 
C    -3.9564942   -5.2767430   -0.1911867 
C    -2.6702369   -7.3928983    0.2485614 
H    -0.0817634    7.6456450    4.0324546 
H     0.2005219    6.6326639    2.5823416 
H     1.4468621    6.7324638    3.8582891 
H    -2.2611934    6.4062183    4.5901492 
H    -2.0466435    5.5411500    3.0524995 
H    -2.3087098    4.6186772    4.5619892 
H    -0.5686492    6.5301279    6.2993984 
H     1.0065815    5.7178686    6.1760410 
H    -0.4680279    4.7521424    6.4622791 
H    -1.2760128    3.6566075    2.5382762 
H     2.1703137    4.4550879    5.0042858 
H     5.1184523    0.6438123    4.3402820 
H     3.4051806    0.1527750    4.3662527 
H     4.1632158    0.7109266    2.8437786 
H     4.7205236    3.1808930    2.5171169 
H     4.5132406    4.3433603    3.8583694 
H     5.7732933    3.0777988    3.9618943 
H     3.6340364    3.5157072    6.1545103 
H     3.0702573    1.8290903    6.3247495 
H     4.8156491    2.1879151    6.1824507 
H     2.1315528    1.0238417    2.3862679 
H    -1.7057105    3.7515996    0.1101260 
H    -4.4956555    5.4757246    1.7984631 
H    -6.0024137    4.7433975    1.1803715 
H    -5.4931031    6.3525964    0.5978550 
H    -4.6742441    4.0514007   -2.3157729 
H    -6.1275729    3.9445030   -1.2835105 
H    -5.5654414    5.5358466   -1.8554437 
H    -2.4904102    5.8287529    0.2431856 
H    -3.5322664    6.6014714   -0.9754685 
H    -2.5300165    5.1916099   -1.4300486 
H    -5.8355045    2.5234720    0.3704891 
H    -2.6724480   -0.2713810    1.2779375 
H    -4.2568624   -1.7592722    0.3773313 
H    -5.6375022   -2.2445888    1.4031152 
H    -4.1800512   -1.5598557    2.1545658 
H    -6.7007976    1.2621264    2.3646437 
H    -6.9927127   -0.4762333    2.6629958 
H    -5.5116111    0.3078039    3.2926096 
H    -7.0225168    0.8218743   -0.1624904 
H    -7.2356813   -0.9196852    0.1348384 
H    -5.9664148   -0.3533490   -0.9947897 
H     2.0100730    3.0963256    0.5628096 
H     3.1817235    3.8972090   -1.4744326 
H     2.3536687    3.2306431   -3.7468320 
H    -3.6149743    3.0800073   -4.3520999 
H    -2.3591331    4.3183774   -4.0934848 
H    -1.9905719    1.5726668   -5.4749555 
H    -1.9794151    3.1715235   -6.2484966 
H     0.1251995    3.6978515   -4.7723732 
H     0.3209713    2.4821843   -6.0750193 
H    -4.3203208    1.2051241   -3.3690962 
H    -4.4435590   -1.2471247   -2.8973401 
H    -2.5065537   -2.4305398   -1.9051069 
H     0.6197097   -1.4249470   -3.7950672 
H     3.7282812   -1.9596146   -7.2054805 
H     4.7313255   -1.6754609   -5.7564733 
H     3.4513671   -2.9197094   -5.7203139 
H     4.0835793    0.8320714   -5.8625890 
H     3.0342051    0.5364264   -7.2731170 
H     2.3595584    1.2952738   -5.7941758 
H     0.5240742   -0.5106265   -5.8511088 
H     1.3190265   -1.2354339   -7.2798912 
H     0.9781727   -2.2440094   -5.8524784 
H     4.7373573   -0.1552263   -3.9818300 
H     2.7813682   -0.6213927   -0.1581843 
H     5.8677214   -1.9265942   -0.9045987 
H     6.4727431   -1.2828834   -2.4565318 
H     7.2119464   -0.7397085   -0.9214368 
H     5.9480969    0.8641412    0.6174662 
H     4.6876723   -0.3838023    0.7539377 
H     4.2436997    1.2838400    0.2795565 
H     5.0703227    2.2131414   -2.0159590 
H     6.0758893    1.1854512   -3.0759049 
H     6.7203527    1.7334070   -1.5119079 
H     1.4439931   -3.6254276   -2.5610200 
H     2.1905363   -4.7475192   -4.2187365 
H     3.0327037   -6.3137899   -4.2582847 
H     3.1125722   -5.3004012   -2.7892003 
H     0.8403765   -7.3765376   -4.9908553 
H    -0.6056382   -7.2851089   -3.9436867 
H    -0.0433235   -5.8292166   -4.8129353 
H     2.2841188   -7.4207811   -1.4807544 
H     2.2563313   -8.2767576   -3.0494502 
H     0.8066815   -8.2652975   -2.0189428 
H    -0.8619101   -7.0960963   -1.4458709 
H    -1.7765502   -3.2494709    0.2792390 
H    -2.4921586   -4.3658935    1.9770295 
H    -3.2515934   -5.9060250    2.4405289 
H    -1.4782093   -5.8195661    2.2252314 
H    -4.8072967   -5.6757639    0.3896906 
H    -4.1040556   -5.5470967   -1.2513382 
H    -3.9794091   -4.1758142   -0.1128662 
H    -1.7324167   -7.8532167    0.6064270 
H    -2.8540812   -7.7347039   -0.7849485 
H    -3.4942463   -7.7761056    0.8746175 
