200
Energy =
C     0.9720395   -2.8368827    2.2016537 
C     0.7181708   -1.8857762    3.2423677 
C    -0.5877568   -1.3827201    3.4429872 
H     1.5584892   -1.4162682    3.7683880 
Pd    0.1472765   -0.9797826    1.3205504 
P    -0.5341502    1.2105603    0.9968182 
P     0.3282741   -1.4352933   -0.9600646 
H     0.1713496   -3.5492644    1.9602236 
H    -1.4126359   -1.9780529    3.0191332 
C     4.8795276   -4.0268447    0.8317469 
C     4.7384861   -2.8726368    1.6204778 
C     3.4767656   -2.4785994    2.0754217 
C     2.3228299   -3.2388605    1.7663298 
C     2.4809234   -4.4025376    0.9791615 
C     3.7445854   -4.7875090    0.5151044 
H     5.8675480   -4.3305839    0.4709342 
H     5.6184379   -2.2735815    1.8772909 
H     3.3868372   -1.5610143    2.6667634 
H     1.6004911   -5.0029841    0.7249829 
H     3.8434347   -5.6908348   -0.0949601 
C    -1.9877292    1.5837885    6.2156157 
C    -2.8687576    0.9585813    5.3207767 
C    -2.3881804   -0.0035766    4.4288037 
C    -1.0199868   -0.3627297    4.4071113 
C    -0.1441457    0.2814032    5.3104081 
C    -0.6255388    1.2441939    6.2026890 
H    -2.3606053    2.3309765    6.9233434 
H    -3.9323744    1.2186471    5.3199017 
H    -3.0775497   -0.4866194    3.7316031 
H     0.9186874    0.0247075    5.3234894 
H     0.0659119    1.7355464    6.8940427 
C    -0.7908938    6.5268607    3.7877799 
C    -1.2286301    5.2396165    4.5359464 
C    -2.7366315    5.0032115    4.2883714 
C    -1.0111171    5.4348865    6.0557767 
C    -0.3774905    4.0722756    3.9981806 
C    -0.8566108    3.2381327    2.9695238 
C     0.9328351    3.8544025    4.4647045 
C     1.7603586    2.8194775    3.9812202 
C     3.1870005    2.6359010    4.5363893 
C     4.0767851    3.7671265    3.9574543 
C     3.1855996    2.7162562    6.0828203 
C     3.7925685    1.2740744    4.1325394 
C     1.2479532    2.0043385    2.9596236 
C    -0.0407809    2.2326531    2.4346909 
C    -2.3097230    1.4739859    0.6751685 
C    -2.7782323    2.7196296    0.2144530 
C    -4.1447595    2.9114774   -0.0310345 
C    -4.7056571    4.2460582   -0.5559999 
C    -3.5866386    5.2778905   -0.8110181 
C    -5.6936448    4.8296504    0.4856013 
C    -5.4432107    3.9868431   -1.8949964 
C    -5.0177904    1.8237188    0.2005399 
C    -4.5772952    0.5619022    0.6372192 
C    -3.1957085    0.4039771    0.8679884 
C    -5.5332935   -0.6368487    0.8137112 
C    -5.2706376   -1.6457587   -0.3330454 
C    -5.2748384   -1.3379770    2.1703254 
C    -7.0154883   -0.2087329    0.7677057 
C     0.3533368    2.0057967   -0.4181994 
C     1.3945284    2.9272087   -0.1837630 
C     2.1075276    3.4782624   -1.2549925 
C     1.7877512    3.1356887   -2.5726868 
C     0.0167791    1.6459103   -1.7462786 
C     0.7345422    2.2411270   -2.8136387 
C    -1.0968644    0.7216032   -2.1215310 
C    -2.1831378    1.2795150   -2.8374732 
O    -2.1879359    2.6398544   -3.0058362 
C    -2.2745253    3.1866470   -4.3414143 
C    -0.9500484    3.8592803   -4.7130953 
C     0.1769221    2.8874750   -5.0744825 
O     0.3662885    1.8619028   -4.0804177 
C    -3.2291064    0.4762922   -3.3172029 
C    -3.1793516   -0.9064075   -3.1167501 
C    -2.1121087   -1.4844040   -2.4172501 
C    -1.0719597   -0.6809637   -1.9102130 
C     1.8235360   -0.8837822   -1.8443457 
C     2.9125571   -0.3864722   -1.1110178 
C     4.0624570    0.0735735   -1.7781493 
C     5.2835056    0.6339321   -1.0238648 
C     6.4197475   -0.4196316   -1.0841394 
C     4.9480958    0.9305135    0.4531110 
C     5.7621079    1.9527471   -1.6803990 
C     4.0799409   -0.0148525   -3.1836313 
C     2.9976053   -0.5016792   -3.9446209 
C     1.8551334   -0.9285560   -3.2502747 
C     3.0918156   -0.5457262   -5.4813644 
C     4.1932047   -1.5583521   -5.8873001 
C     3.4568961    0.8625211   -6.0152788 
C     1.7562447   -0.9759742   -6.1239457 
C     0.1541982   -3.2384129   -1.2358576 
C    -0.8644785   -3.8926932   -0.5145974 
C    -1.0487562   -5.2789777   -0.6236860 
C    -2.1288436   -6.0303727    0.1775698 
C    -3.0747614   -6.7715598   -0.8010180 
C    -2.9766342   -5.0746995    1.0452349 
C    -1.4332824   -7.0535622    1.1125286 
C    -0.1790400   -5.9844031   -1.4840082 
C     0.8535196   -5.3623378   -2.2113699 
C     1.0137448   -3.9691663   -2.0684916 
C     1.7464959   -6.1910330   -3.1561754 
C     2.9479469   -5.3722903   -3.6767491 
C     2.2902869   -7.4428737   -2.4232016 
C     0.8852010   -6.6388492   -4.3663786 
H    -1.3748703    7.3962404    4.1401677 
H    -0.9494288    6.4198738    2.6999043 
H     0.2796259    6.7379723    3.9569719 
H    -3.3214856    5.8164845    4.7513653 
H    -2.9850532    4.9946856    3.2125942 
H    -3.0690385    4.0453491    4.7249847 
H    -1.6690715    6.2388450    6.4288096 
H     0.0256791    5.7266389    6.2948961 
H    -1.2444430    4.5109489    6.6118696 
H    -1.8642124    3.3745570    2.5726402 
H     1.3241366    4.5107933    5.2465750 
H     5.1110800    3.6797973    4.3363101 
H     4.1061057    3.7133494    2.8544877 
H     3.6898649    4.7615158    4.2404677 
H     2.8270049    3.6921786    6.4503989 
H     2.5446918    1.9295825    6.5183795 
H     4.2100979    2.5745293    6.4690497 
H     3.1735822    0.4343480    4.4970512 
H     3.9023700    1.1753579    3.0405951 
H     4.7971327    1.1655800    4.5757925 
H     1.8473565    1.1872290    2.5438075 
H    -2.0583198    3.5186965    0.0244965 
H    -2.8558064    4.9009117   -1.5473141 
H    -3.0462329    5.5334678    0.1182613 
H    -4.0245200    6.2106769   -1.2064114 
H    -6.5350735    4.1421223    0.6796741 
H    -5.1816462    5.0204745    1.4455034 
H    -6.1141140    5.7843530    0.1222110 
H    -4.7532029    3.5294644   -2.6242048 
H    -5.8237000    4.9356261   -2.3134429 
H    -6.3040708    3.3086311   -1.7653285 
H    -6.0839331    1.9714673    0.0113246 
H    -2.7879626   -0.5642588    1.1788118 
H    -5.4844820   -1.1859826   -1.3124020 
H    -5.9125042   -2.5377177   -0.2164394 
H    -4.2169582   -1.9738906   -0.3435187 
H    -5.4018561   -0.6351779    3.0122265 
H    -5.9867712   -2.1705390    2.3077774 
H    -4.2591559   -1.7679273    2.2242356 
H    -7.2470266    0.5361413    1.5494151 
H    -7.6615500   -1.0877856    0.9346372 
H    -7.2900485    0.2186688   -0.2122950 
H     1.6439521    3.2251959    0.8372738 
H     2.9182256    4.1872557   -1.0579701 
H     2.3509935    3.5570551   -3.4099269 
H    -2.5403299    2.3902124   -5.0610750 
H    -3.0887601    3.9313798   -4.3279739 
H    -1.1151006    4.5243231   -5.5817723 
H    -0.6423408    4.5034995   -3.8695416 
H     1.1191532    3.4375560   -5.2605649 
H    -0.0654531    2.3228246   -5.9895527 
H    -4.0691940    0.9400056   -3.8429568 
H    -3.9821947   -1.5432009   -3.5018694 
H    -2.0839485   -2.5682101   -2.2801697 
H     2.8375834   -0.3513088   -0.0206704 
H     7.3122802   -0.0577942   -0.5420598 
H     6.0932838   -1.3702295   -0.6282630 
H     6.7139022   -0.6264471   -2.1280048 
H     4.6802726    0.0124141    1.0013299 
H     5.8245337    1.3741601    0.9565944 
H     4.1080359    1.6430512    0.5360806 
H     4.9512763    2.7013866   -1.6890628 
H     6.6142695    2.3686907   -1.1144477 
H     6.0998255    1.8019108   -2.7197626 
H     4.9756476    0.3235950   -3.7140496 
H     0.9717211   -1.2772115   -3.7899301 
H     5.1770025   -1.2730031   -5.4756483 
H     3.9506093   -2.5698343   -5.5166843 
H     4.2857876   -1.6053531   -6.9872237 
H     3.5004521    0.8536634   -7.1189080 
H     4.4394202    1.2022613   -5.6453924 
H     2.6991980    1.5994188   -5.7006476 
H     0.9376182   -0.2923406   -5.8386570 
H     1.4717671   -2.0017075   -5.8286423 
H     1.8504400   -0.9629514   -7.2236230 
H    -1.5069638   -3.2987204    0.1429615 
H    -3.5777685   -6.0570996   -1.4763550 
H    -3.8503150   -7.3221279   -0.2395930 
H    -2.5286488   -7.5013458   -1.4229085 
H    -3.7353259   -5.6525405    1.6001653 
H    -2.3595246   -4.5400242    1.7904419 
H    -3.5091163   -4.3254972    0.4332638 
H    -0.8463010   -7.7934201    0.5417689 
H    -2.1845867   -7.6038457    1.7064354 
H    -0.7471935   -6.5419942    1.8113554 
H    -0.3105096   -7.0666368   -1.5839985 
H     1.8153966   -3.4480946   -2.5942850 
H     3.5727726   -4.9947055   -2.8478917 
H     3.5812098   -6.0096222   -4.3173873 
H     2.6251842   -4.5095158   -4.2856839 
H     2.9395673   -8.0249696   -3.1003938 
H     1.4802466   -8.1118801   -2.0864284 
H     2.8849777   -7.1571508   -1.5384828 
H     0.4894092   -5.7632282   -4.9104630 
H     0.0279745   -7.2547626   -4.0426867 
H     1.4916305   -7.2386642   -5.0684880 
