206
Energy =
C    -0.6122412   -3.6789866    0.9460173 
C    -1.9669223   -3.3506904    0.7056130 
C    -2.3887043   -2.9876708   -0.6130446 
H    -2.6512695   -3.2177388    1.5528504 
Pd   -0.8178646   -1.5806587    0.0929974 
P    -0.8210406    0.0456517   -1.5658351 
P     0.7550399   -0.4674595    1.4033764 
H    -0.0196030   -3.9723441    0.0649628 
H    -1.8566721   -3.4576469   -1.4512152 
C     1.3568294   -4.6574792    4.6339074 
C    -0.0079839   -4.3257383    4.6503188 
C    -0.6709394   -4.0048988    3.4622740 
C     0.0203804   -4.0093754    2.2291991 
C     1.3962825   -4.3390555    2.2312446 
C     2.0595139   -4.6573257    3.4198488 
H     1.8702765   -4.9181935    5.5648148 
H    -0.5579714   -4.3143748    5.5964880 
H    -1.7347120   -3.7533588    3.4939199 
H     1.9485874   -4.3375951    1.2863396 
H     3.1249130   -4.9091898    3.3977666 
C    -6.3285039   -1.5799743   -1.6399241 
C    -5.8517380   -1.4197915   -0.3279318 
C    -4.5703442   -1.8603321    0.0176800 
C    -3.7373393   -2.4867420   -0.9393156 
C    -4.2275210   -2.6322718   -2.2562051 
C    -5.5078563   -2.1858469   -2.6022211 
H    -7.3315576   -1.2320679   -1.9076290 
H    -6.4831218   -0.9428870    0.4286783 
H    -4.2073989   -1.7049326    1.0394723 
H    -3.5927439   -3.0991094   -3.0148677 
H    -5.8643275   -2.3162195   -3.6293916 
C     3.4324923   -1.5418973    6.0782193 
C     2.0402713   -1.1676952    6.6326655 
C     1.6334241   -2.2285545    7.6847724 
C     2.1310877    0.2217229    7.3179282 
C     0.9857178   -1.0723653    5.5122333 
C     1.3533880   -0.9685172    4.1564321 
C    -0.3851004   -1.0154544    5.8281452 
C    -1.3960875   -0.8937515    4.8530563 
C    -2.8787990   -0.8766362    5.2737173 
C    -3.1579013    0.4362789    6.0500930 
C    -3.8258272   -0.9436352    4.0567408 
C    -3.1816578   -2.0943410    6.1834272 
C    -0.9916591   -0.7771693    3.5136098 
C     0.3753226   -0.7915354    3.1680398 
C     2.4848819   -0.9246385    1.0442644 
C     2.7007470   -1.9131121    0.0691813 
C     3.9995366   -2.3331124   -0.2544434 
C     4.2676779   -3.4162487   -1.3170882 
C     5.2941230   -2.8900856   -2.3517735 
C     2.9783157   -3.8074399   -2.0732871 
C     4.8365913   -4.6756300   -0.6142428 
C     5.0660867   -1.7391636    0.4508121 
C     4.8857602   -0.7247453    1.4137395 
C     3.5708671   -0.3059515    1.6868485 
C     6.0981681   -0.1497765    2.1726551 
C     6.6051395   -1.2365023    3.1577449 
C     7.2356215    0.2184415    1.1884353 
C     5.7235376    1.1156773    2.9743851 
C     0.7055456    1.3732042    1.2966147 
C     0.2415333    2.1435784    2.3815058 
C     0.1889033    3.5369123    2.2719114 
C     0.5952084    4.1790574    1.0980939 
C     1.1166436    2.0009235    0.0974140 
C     1.0667528    3.4170066    0.0142442 
C     1.6925830    1.2695733   -1.0717572 
C     3.0735506    1.4772596   -1.3342280 
O     3.7338242    2.2497488   -0.4249647 
C     4.9825672    2.8545777   -0.8088671 
C     4.8004871    3.9814365   -1.8390714 
C     4.5264310    5.3737000   -1.2422134 
C     3.2423818    5.5469405   -0.4106063 
C     1.9271599    5.3308244   -1.1788247 
O     1.4898968    3.9577318   -1.1659005 
C     3.6851726    0.8985083   -2.4601108 
C     2.9183530    0.1299650   -3.3411294 
C     1.5572974   -0.0857786   -3.1051233 
C     0.9382869    0.4696894   -1.9660658 
C    -1.6722390    1.6239486   -1.2370855 
C    -1.4898451    2.7111345   -2.1159505 
C    -2.2234234    3.8914950   -1.9373124 
C    -2.1228097    5.0770632   -2.9159792 
C    -1.8417513    6.3854251   -2.1358671 
C    -3.4726876    5.2056615   -3.6697792 
C    -0.9963490    4.8708755   -3.9508529 
C    -3.1113012    3.9570634   -0.8380299 
C    -3.2893844    2.9009343    0.0710522 
C    -2.5561026    1.7166300   -0.1546864 
C    -4.2390093    2.9934200    1.2823535 
C    -3.4005402    2.9029113    2.5826073 
C    -5.0349207    4.3145191    1.3045356 
C    -5.2443691    1.8165871    1.2339475 
C    -1.5313194   -0.5995051   -3.1295890 
C    -2.5268827    0.0880094   -3.8378887 
C    -3.0755178   -0.4518114   -5.0169795 
C    -4.1283526    0.3592490   -5.7985179 
C    -3.3889347    1.5059139   -6.5388988 
C    -4.8747710   -0.5089907   -6.8338674 
C    -5.1731520    0.9726815   -4.8321569 
C    -2.5868597   -1.6946026   -5.4665876 
C    -1.5897916   -2.4140078   -4.7738215 
C    -1.0867962   -1.8543461   -3.5872235 
C    -1.0257628   -3.7611431   -5.2697616 
C     0.4677011   -3.5602963   -5.6394713 
C    -1.7772492   -4.2857462   -6.5106894 
C    -1.1351718   -4.8238619   -4.1463314 
H     3.4013830   -2.4902801    5.5134435 
H     3.8342624   -0.7576803    5.4132253 
H     4.1462441   -1.6608489    6.9113526 
H     1.5193685   -3.2225406    7.2209019 
H     0.6844207   -1.9743777    8.1865810 
H     2.4090845   -2.2993307    8.4672773 
H     2.8801518    0.2030352    8.1299428 
H     2.4263973    0.9982619    6.5903336 
H     1.1596468    0.5148632    7.7532603 
H     2.4035280   -1.0190520    3.8653930 
H    -0.6811915   -1.0803914    6.8795992 
H    -4.2142106    0.4776469    6.3711645 
H    -2.9534134    1.3157973    5.4148721 
H    -2.5246018    0.5117570    6.9509250 
H    -3.7100489   -0.0727338    3.3904181 
H    -4.8746466   -0.9591542    4.3991067 
H    -3.6544145   -1.8604878    3.4643151 
H    -2.9782301   -3.0422327    5.6543562 
H    -2.5769717   -2.0830178    7.1059353 
H    -4.2447068   -2.0904072    6.4819958 
H    -1.7320478   -0.6686137    2.7134547 
H     1.8297760   -2.3286962   -0.4450327 
H     5.4825572   -3.6554970   -3.1253659 
H     6.2620430   -2.6461079   -1.8816344 
H     4.9144802   -1.9797065   -2.8459945 
H     3.2133460   -4.5512848   -2.8538908 
H     2.2283533   -4.2633862   -1.4015745 
H     2.5182072   -2.9311432   -2.5632908 
H     4.1175673   -5.0728114    0.1243990 
H     5.7776071   -4.4497288   -0.0833827 
H     5.0446609   -5.4695629   -1.3536008 
H     6.0850329   -2.0758339    0.2341003 
H     3.3799503    0.5089882    2.3884687 
H     7.4725152   -0.8630627    3.7313485 
H     6.9175100   -2.1483738    2.6192613 
H     5.8117720   -1.5181417    3.8719160 
H     7.6009290   -0.6583917    0.6273043 
H     6.8966833    0.9732896    0.4591073 
H     8.0943766    0.6360894    1.7427652 
H     6.6245276    1.5328403    3.4559789 
H     5.2904134    1.8928600    2.3202665 
H     4.9956892    0.8960007    3.7751121 
H    -0.0644572    1.6596550    3.3118355 
H    -0.1655152    4.1347810    3.1178049 
H     0.5520691    5.2686525    1.0345722 
H     5.6748739    2.0769864   -1.1796655 
H     5.4002004    3.2369604    0.1367812 
H     5.7242456    4.0445335   -2.4433458 
H     3.9965503    3.6878223   -2.5398735 
H     5.3876755    5.6582428   -0.6074744 
H     4.5095701    6.1070822   -2.0713155 
H     3.2481891    4.8756698    0.4685242 
H     3.2352211    6.5764075   -0.0076030 
H     1.1244268    5.9814214   -0.7869122 
H     2.0403403    5.5678046   -2.2493970 
H     4.7475081    1.0531753   -2.6605160 
H     3.3876124   -0.3009999   -4.2316284 
H     0.9753630   -0.6672758   -3.8228358 
H    -0.7733529    2.6139190   -2.9348056 
H    -1.7526024    7.2350626   -2.8357232 
H    -2.6499437    6.6243597   -1.4238355 
H    -0.9000271    6.3057203   -1.5665426 
H    -3.4350269    6.0466071   -4.3852186 
H    -4.3088423    5.3883934   -2.9725239 
H    -3.6952088    4.2822817   -4.2332734 
H    -0.9201928    5.7590063   -4.6015808 
H    -1.1940951    4.0007152   -4.6015913 
H    -0.0206516    4.7169668   -3.4586756 
H    -3.6845092    4.8759601   -0.6944391 
H    -2.6641643    0.8536639    0.5119596 
H    -2.7110007    3.7600269    2.6613844 
H    -4.0625111    2.9038093    3.4672608 
H    -2.7895515    1.9844187    2.6103220 
H    -4.3702826    5.1930472    1.3814162 
H    -5.7050274    4.3282329    2.1814393 
H    -5.6610403    4.4282887    0.4021159 
H    -5.9360894    1.8686235    2.0937241 
H    -4.7308130    0.8425083    1.2727564 
H    -5.8394240    1.8432167    0.3047529 
H    -2.8815678    1.0508199   -3.4640607 
H    -2.6424347    1.1022959   -7.2450494 
H    -2.8613894    2.1617819   -5.8235094 
H    -4.1069804    2.1239989   -7.1074961 
H    -5.3725609   -1.3702503   -6.3532762 
H    -5.6499582    0.0945428   -7.3364677 
H    -4.1994055   -0.8923784   -7.6183713 
H    -5.6716815    0.1908822   -4.2349372 
H    -5.9421090    1.5153778   -5.4094716 
H    -4.7190864    1.6944117   -4.1316202 
H    -2.9978722   -2.1185434   -6.3834242 
H    -0.3339652   -2.3977002   -3.0043301 
H     0.9046380   -4.5069399   -6.0047108 
H     0.5758146   -2.8002212   -6.4328844 
H     1.0583142   -3.2300755   -4.7664874 
H    -1.6861210   -3.5947485   -7.3668136 
H    -2.8503525   -4.4408924   -6.3010055 
H    -1.3515328   -5.2554412   -6.8208278 
H    -0.5487061   -4.5410917   -3.2538689 
H    -2.1852852   -4.9697022   -3.8373262 
H    -0.7454329   -5.7943540   -4.5006395 
