200
Energy =
C     3.4796681    0.1889244    1.3167970 
C     3.4613835    1.5098123    0.7689165 
C     2.5624338    2.4905217    1.2418617 
H     4.0177835    1.7165971   -0.1541575 
Pd    1.4509459    0.6280486    0.5329403 
P    -0.4232735    1.5192336   -0.5287098 
P     0.4773124   -1.4720897    0.7933947 
H     3.2625061    0.0762288    2.3871320 
H     2.1034686    2.3249747    2.2302030 
C     5.6181653   -3.1115830   -0.4452877 
C     5.3126020   -1.9814237   -1.2225862 
C     4.6198955   -0.9058566   -0.6600331 
C     4.2248947   -0.9258975    0.6995360 
C     4.5424116   -2.0669321    1.4698922 
C     5.2298842   -3.1465536    0.9015821 
H     6.1569078   -3.9556396   -0.8879277 
H     5.6136408   -1.9413025   -2.2746654 
H     4.3708667   -0.0442423   -1.2892987 
H     4.2403108   -2.1062444    2.5219780 
H     5.4658571   -4.0196171    1.5178853 
C     2.1744402    6.5056539   -0.2405470 
C     1.1544148    5.9272750    0.5310599 
C     1.2940215    4.6234931    1.0154681 
C     2.4490864    3.8625874    0.7215546 
C     3.4710579    4.4594661   -0.0504846 
C     3.3354941    5.7697422   -0.5214375 
H     2.0707953    7.5293741   -0.6137591 
H     0.2444288    6.4941168    0.7537009 
H     0.4888813    4.1731517    1.6061494 
H     4.3951723    3.9089860   -0.2525638 
H     4.1461336    6.2251061   -1.0993946 
C    -2.1015081   -5.7811073   -3.0844028 
C    -1.1396175   -5.8605835   -1.8712907 
C    -0.1850165   -7.0701281   -2.0371674 
C    -1.9838067   -6.0643996   -0.5956707 
C    -0.3076383   -4.5660986   -1.8058461 
C    -0.3048342   -3.7307332   -0.6779160 
C     0.4730190   -4.1739188   -2.9129075 
C     1.2352030   -2.9902940   -2.9437816 
C     2.0533094   -2.6250332   -4.1975024 
C     2.5738005   -1.1728500   -4.1317217 
C     3.2611790   -3.5930713   -4.2904240 
C     1.1787278   -2.7633128   -5.4681857 
C     1.2328805   -2.1867464   -1.7899372 
C     0.4716132   -2.5575432   -0.6703359 
C     1.2624195   -2.4094076    2.1599426 
C     1.6654453   -3.7482938    2.0212172 
C     2.2744727   -4.4247040    3.0930788 
C     2.6633849   -5.9129832    2.9903869 
C     2.6577936   -6.4072587    1.5267203 
C     1.6244224   -6.7329408    3.8007571 
C     4.0749562   -6.1540746    3.5799305 
C     2.4767405   -3.7152913    4.2967310 
C     2.1029033   -2.3675022    4.4599489 
C     1.4943883   -1.7254264    3.3654655 
C     2.3091930   -1.5909258    5.7752514 
C     3.1794461   -2.3722378    6.7816743 
C     3.0020554   -0.2356624    5.4803814 
C     0.9187279   -1.3320681    6.4123777 
C    -1.2994961   -1.3207611    1.2957128 
C    -1.6858235   -1.5316336    2.6350388 
C    -3.0206252   -1.3655960    3.0229992 
C    -3.9927514   -0.9993570    2.0864621 
C    -2.2713231   -0.9486065    0.3329019 
C    -3.6192481   -0.8112066    0.7476794 
C    -1.9917424   -0.7640821   -1.1246453 
C    -2.5848481   -1.6883776   -2.0187023 
O    -3.2906086   -2.7267638   -1.4684815 
C    -4.6738793   -2.9163009   -1.8436245 
C    -5.5768591   -2.6407580   -0.6378352 
C    -5.7663020   -1.1564295   -0.3126426 
O    -4.5167731   -0.4441226   -0.2238769 
C    -2.4086013   -1.5752104   -3.4060123 
C    -1.6635371   -0.5085685   -3.9199638 
C    -1.0834705    0.4305130   -3.0584569 
C    -1.2404046    0.3104977   -1.6628495 
C    -1.7382621    2.0933746    0.5977603 
C    -3.0227035    2.4233354    0.1313218 
C    -4.0023828    2.8831849    1.0276489 
C    -5.4215312    3.2665550    0.5667788 
C    -5.6328792    2.9874182   -0.9363392 
C    -5.6445895    4.7780164    0.8289092 
C    -6.4585465    2.4369335    1.3658502 
C    -3.6530524    2.9839125    2.3907276 
C    -2.3867998    2.6227687    2.8918416 
C    -1.4306822    2.1764561    1.9656316 
C    -2.0764522    2.7296387    4.3969055 
C    -3.1531669    1.9670196    5.2089721 
C    -2.0786395    4.2263350    4.8006006 
C    -0.6976677    2.1235178    4.7383579 
C     0.0280475    2.9052061   -1.6369644 
C     1.2394808    2.7787933   -2.3401416 
C     1.6135518    3.7300802   -3.3049622 
C     2.8805130    3.5513406   -4.1648985 
C     2.4425921    2.9672788   -5.5344066 
C     3.8855899    2.5780269   -3.5081459 
C     3.5960199    4.9051516   -4.3876357 
C     0.7456537    4.8208487   -3.5098786 
C    -0.4576757    4.9936349   -2.7951821 
C    -0.8076519    4.0126363   -1.8517027 
C    -1.3540261    6.2159659   -3.0771038 
C    -2.6095233    6.2321183   -2.1786010 
C    -0.5539441    7.5177787   -2.8184090 
C    -1.8108879    6.1728259   -4.5583562 
H    -2.7332032   -6.6859128   -3.1332239 
H    -1.5538213   -5.7028172   -4.0392968 
H    -2.7554095   -4.8979181   -2.9907643 
H    -0.7629051   -8.0098703   -2.0944072 
H     0.4198157   -6.9883490   -2.9569626 
H     0.5082215   -7.1418773   -1.1805424 
H    -2.5811775   -6.9879280   -0.6883257 
H    -2.6767079   -5.2199201   -0.4365749 
H    -1.3485629   -6.1691622    0.3021986 
H    -0.9218652   -3.9651343    0.1923846 
H     0.4754391   -4.8168887   -3.7989836 
H     3.1102272   -0.9225093   -5.0633122 
H     1.7429017   -0.4548154   -4.0124844 
H     3.2782167   -1.0299197   -3.2954636 
H     3.8896824   -3.5195021   -3.3862646 
H     2.9244524   -4.6402277   -4.3851620 
H     3.8831182   -3.3524504   -5.1716512 
H     1.7611289   -2.4747031   -6.3609713 
H     0.8305886   -3.7987017   -5.6224738 
H     0.2918506   -2.1099921   -5.4044794 
H     1.8047223   -1.2557459   -1.7473182 
H     1.5094884   -4.2543359    1.0675543 
H     3.3394293   -5.8104084    0.8950864 
H     1.6489995   -6.3645789    1.0798997 
H     2.9889948   -7.4592373    1.4893299 
H     1.6156422   -6.4280383    4.8619031 
H     0.6078757   -6.5856430    3.3951580 
H     1.8640287   -7.8105093    3.7548937 
H     4.8355889   -5.5557964    3.0492052 
H     4.3467399   -7.2194877    3.4810724 
H     4.1285014   -5.8997961    4.6520439 
H     2.9458889   -4.2360944    5.1342082 
H     1.1960396   -0.6733627    3.4456365 
H     2.7025175   -3.3192654    7.0886691 
H     3.3270626   -1.7676427    7.6929689 
H     4.1751383   -2.6029820    6.3635710 
H     2.3824678    0.4144972    4.8373187 
H     3.1823295    0.3123757    6.4217553 
H     3.9750114   -0.3898933    4.9808931 
H     0.2692642   -0.7499002    5.7357358 
H     1.0250095   -0.7633840    7.3536295 
H     0.4091181   -2.2848109    6.6390514 
H    -0.9485566   -1.8466068    3.3771576 
H    -3.3057878   -1.5322345    4.0667838 
H    -5.0337601   -0.8603865    2.3906469 
H    -4.9267820   -2.2625780   -2.6989554 
H    -4.7782546   -3.9672354   -2.1640775 
H    -6.5761377   -3.0758989   -0.8277234 
H    -5.1557896   -3.1724355    0.2347678 
H    -6.3043405   -0.6392148   -1.1238334 
H    -6.3596726   -1.0327743    0.6134990 
H    -2.8503172   -2.3252766   -4.0687114 
H    -1.5323593   -0.4056573   -5.0019509 
H    -0.5160695    1.2669254   -3.4747270 
H    -3.2550996    2.2881005   -0.9271158 
H    -6.6686099    3.2426801   -1.2195015 
H    -4.9588741    3.5972684   -1.5636585 
H    -5.4610063    1.9234242   -1.1733766 
H    -4.9132191    5.3838053    0.2651311 
H    -6.6595148    5.0766158    0.5109703 
H    -5.5386700    5.0249923    1.8996431 
H    -6.4014865    2.6377912    2.4493637 
H    -7.4829072    2.6816210    1.0332187 
H    -6.2882169    1.3584419    1.2083199 
H    -4.4090137    3.3441110    3.0963630 
H    -0.4363919    1.8590528    2.2917493 
H    -4.1610480    2.3874043    5.0516628 
H    -3.1775369    0.9029532    4.9178515 
H    -2.9309874    2.0289199    6.2890384 
H    -1.8616233    4.3356593    5.8782858 
H    -3.0580818    4.6947773    4.6012506 
H    -1.3125507    4.7853105    4.2343323 
H     0.1272431    2.6719558    4.2488826 
H    -0.6405270    1.0635433    4.4331915 
H    -0.5251872    2.1720871    5.8270851 
H     1.8786872    1.9138109   -2.1333488 
H     1.9466647    1.9891841   -5.4014486 
H     3.3186782    2.8245860   -6.1926549 
H     1.7340520    3.6432334   -6.0442473 
H     4.8012496    2.5173142   -4.1209125 
H     4.1713025    2.9236553   -2.4994448 
H     3.4799601    1.5555099   -3.4254848 
H     2.9719777    5.6176686   -4.9529552 
H     4.5222464    4.7503282   -4.9680198 
H     3.8629435    5.3720833   -3.4243908 
H     1.0174516    5.5706292   -4.2589444 
H    -1.7282451    4.1061939   -1.2740125 
H    -2.3457208    6.2657173   -1.1063324 
H    -3.2151509    7.1268300   -2.4030812 
H    -3.2476441    5.3470375   -2.3495681 
H    -1.1778394    8.4000350   -3.0468535 
H     0.3525921    7.5739394   -3.4452618 
H    -0.2415334    7.5790932   -1.7622301 
H    -2.4614569    7.0367735   -4.7832524 
H    -2.3781124    5.2484977   -4.7660990 
H    -0.9521558    6.2086727   -5.2507808 
