206
Energy =
C     0.3704716    1.3506615   -3.6000540 
C    -0.7884863    0.5453723   -3.8462968 
C    -2.0127689    0.8523438   -3.2096499 
H    -0.6866587   -0.4023040   -4.3894641 
Pd   -0.3515591    0.4879059   -1.6945589 
P    -1.4515701   -0.8254478   -0.1185855 
P     1.3231554    1.1625403   -0.2209210 
H     0.2100132    2.4227125   -3.4241333 
H    -2.1170835    1.8761308   -2.8153916 
C     4.3604768    0.3447986   -4.8744427 
C     3.3963494   -0.6679470   -4.7333904 
C     2.0979078   -0.3533414   -4.3214058 
C     1.7289288    0.9848841   -4.0440197 
C     2.7109526    1.9913794   -4.1810472 
C     4.0091580    1.6740549   -4.5978889 
H     5.3766952    0.0970090   -5.1979075 
H     3.6607272   -1.7094797   -4.9450304 
H     1.3655220   -1.1583094   -4.1981602 
H     2.4502537    3.0306642   -3.9555849 
H     4.7483006    2.4733371   -4.7122659 
C    -5.7711951   -1.2129735   -3.4118146 
C    -5.6268379   -0.0565914   -2.6300434 
C    -4.3929555    0.5974867   -2.5754207 
C    -3.2765139    0.1099252   -3.2956434 
C    -3.4351008   -1.0652491   -4.0648049 
C    -4.6696291   -1.7182141   -4.1201731 
H    -6.7405895   -1.7173656   -3.4753427 
H    -6.4781480    0.3384274   -2.0659979 
H    -4.2836257    1.4997899   -1.9652301 
H    -2.5923229   -1.4667630   -4.6340430 
H    -4.7760992   -2.6252786   -4.7231631 
C    -5.7236470    3.6003567    0.5048636 
C    -4.2843699    3.5396498    1.0782084 
C    -3.3112774    4.1635385    0.0538504 
C    -4.2084410    4.3721867    2.3828581 
C    -3.9331615    2.0696454    1.3770861 
C    -2.9717655    1.3664567    0.6344725 
C    -4.5971590    1.3707342    2.4055654 
C    -4.3039282    0.0343334    2.7467389 
C    -5.1028147   -0.6785966    3.8560684 
C    -5.1887495    0.2075432    5.1229980 
C    -6.5345736   -0.9451273    3.3205035 
C    -4.4600968   -2.0269008    4.2475599 
C    -3.3074813   -0.6260128    2.0060394 
C    -2.6743670    0.0265236    0.9333471 
C    -2.2864494   -2.2244345   -0.9647880 
C    -1.5911391   -2.8217679   -2.0392208 
C    -2.1035578   -3.9582738   -2.6818257 
C    -1.3529156   -4.6635482   -3.8292611 
C    -0.2073204   -3.7952871   -4.3915094 
C    -2.3216944   -4.9868178   -4.9937313 
C    -0.7496718   -5.9805413   -3.2739232 
C    -3.3306810   -4.4800294   -2.2130144 
C    -4.0562129   -3.8960653   -1.1610657 
C    -3.5181575   -2.7434596   -0.5512362 
C    -5.3566395   -4.5069677   -0.6015138 
C    -5.8924834   -5.6504005   -1.4879619 
C    -5.0468610   -5.0738740    0.8100442 
C    -6.4574706   -3.4244010   -0.4838611 
C    -0.2830696   -1.6531657    1.0440757 
C     0.0036994   -3.0269503    0.9147594 
C     0.9338846   -3.6255243    1.7707296 
C     1.5768473   -2.8799042    2.7645028 
C     0.3678766   -0.8758088    2.0312971 
C     1.2898430   -1.5101355    2.9041579 
C     0.0933970    0.5762633    2.2580191 
C    -0.5818138    0.9298173    3.4557408 
O    -0.9723462   -0.1151892    4.2408911 
C    -1.2364241    0.1292724    5.6350567 
C     0.0437709    0.4184554    6.4358973 
C     0.7619445   -0.8259896    6.9892556 
C     1.3085171   -1.8424791    5.9699964 
C     2.4045280   -1.3055547    5.0343113 
O     1.8691790   -0.7033099    3.8403202 
C    -0.8282242    2.2791758    3.7660532 
C    -0.3867932    3.2806963    2.8951527 
C     0.2927018    2.9571870    1.7162057 
C     0.5328366    1.6070147    1.3908619 
C     2.1300040    2.7020333   -0.8157954 
C     3.5196401    2.8655950   -0.8252496 
C     4.1073239    4.0433232   -1.3359747 
C     5.6363463    4.2195746   -1.2449706 
C     6.0008014    4.4235083    0.2502484 
C     6.1301623    5.4400654   -2.0493619 
C     6.3623964    2.9579877   -1.7758100 
C     3.2536929    5.0291054   -1.8564741 
C     1.8447135    4.8909862   -1.8734886 
C     1.2984497    3.7149254   -1.3426911 
C     0.9704540    6.0003488   -2.4895854 
C     1.3370483    6.1520918   -3.9888014 
C    -0.5353168    5.6768925   -2.3862271 
C     1.2346272    7.3361558   -1.7492048 
C     2.6713901    0.0054664    0.1854194 
C     3.5735606    0.3145267    1.2204315 
C     4.6783661   -0.5174696    1.4655728 
C     5.7544063   -0.1650598    2.5112268 
C     6.0457313   -1.3852701    3.4191086 
C     7.0503756    0.2324551    1.7562534 
C     5.3186614    1.0163161    3.4044498 
C     4.8075039   -1.6798519    0.6776931 
C     3.8903192   -2.0398956   -0.3290377 
C     2.8224884   -1.1606106   -0.5810487 
C     4.0965253   -3.3365310   -1.1347937 
C     2.8699673   -3.6588178   -2.0140711 
C     4.3264854   -4.5279722   -0.1720972 
C     5.3356350   -3.1554333   -2.0494402 
H    -5.7989001    3.0167568   -0.4300323 
H    -6.4583463    3.1908839    1.2197904 
H    -6.0080671    4.6447182    0.2839258 
H    -3.3715825    3.6673497   -0.9314748 
H    -2.2663160    4.1058019    0.4063303 
H    -3.5623239    5.2269209   -0.1012095 
H    -4.4406343    5.4313907    2.1730890 
H    -4.9284851    4.0177762    3.1399689 
H    -3.1969604    4.3163785    2.8203809 
H    -2.4187854    1.8505623   -0.1749560 
H    -5.3737623    1.8941742    2.9724708 
H    -5.7516427   -0.3177935    5.9143458 
H    -5.7066238    1.1619886    4.9284136 
H    -4.1826448    0.4384721    5.5117489 
H    -7.0436591   -0.0026634    3.0530258 
H    -7.1434161   -1.4587307    4.0861031 
H    -6.5029730   -1.5823791    2.4193134 
H    -4.4805546   -2.7493942    3.4130726 
H    -3.4101526   -1.8968091    4.5622959 
H    -5.0193183   -2.4779685    5.0850723 
H    -3.0071507   -1.6448458    2.2599988 
H    -0.6386556   -2.3827824   -2.3550398 
H     0.2861944   -4.3215731   -5.2262298 
H     0.5638139   -3.5854247   -3.6327100 
H    -0.5851805   -2.8327681   -4.7805293 
H    -1.7732118   -5.4798385   -5.8153405 
H    -3.1334901   -5.6663445   -4.6847211 
H    -2.7799507   -4.0652039   -5.3936423 
H    -1.5380422   -6.6443254   -2.8785995 
H    -0.0393043   -5.7682626   -2.4552459 
H    -0.2095049   -6.5248576   -4.0694684 
H    -3.7286368   -5.3768518   -2.6929621 
H    -4.0597886   -2.2574658    0.2635941 
H    -6.8372740   -6.0350598   -1.0670857 
H    -5.1865463   -6.4977335   -1.5403185 
H    -6.0969741   -5.3030461   -2.5163387 
H    -4.2570815   -5.8436239    0.7601119 
H    -4.7028183   -4.2779667    1.4938288 
H    -5.9519970   -5.5321238    1.2474383 
H    -7.3689242   -3.8609781   -0.0389088 
H    -6.1444526   -2.5808107    0.1548652 
H    -6.7155794   -3.0174681   -1.4747745 
H    -0.5090297   -3.6290525    0.1605884 
H     1.1524898   -4.6939064    1.6727993 
H     2.2944466   -3.3684173    3.4273397 
H    -1.7298558   -0.7926030    5.9839427 
H    -1.9697333    0.9492550    5.7384475 
H     0.7234703    1.0193420    5.8029943 
H    -0.2277338    1.0638037    7.2916370 
H     1.6001461   -0.4850313    7.6269801 
H     0.0669168   -1.3579653    7.6672840 
H     1.7298467   -2.6952305    6.5336435 
H     0.4932696   -2.2592878    5.3493492 
H     2.9819286   -0.4964615    5.5109607 
H     3.1230335   -2.0997514    4.7630671 
H    -1.3535429    2.5536920    4.6833073 
H    -0.5653503    4.3312367    3.1470160 
H     0.6542827    3.7552788    1.0634976 
H     4.1568046    2.0686160   -0.4355563 
H     7.0922141    4.5501902    0.3662235 
H     5.5013460    5.3193767    0.6583521 
H     5.6910798    3.5546943    0.8575088 
H     7.2297436    5.5079818   -1.9846838 
H     5.7189461    6.3868457   -1.6576482 
H     5.8587459    5.3578122   -3.1169746 
H     7.4553747    3.0933057   -1.6961530 
H     6.1134480    2.7720788   -2.8336276 
H     6.0975688    2.0523514   -1.2040106 
H     3.6889559    5.9424259   -2.2695058 
H     0.2152874    3.5597972   -1.3423182 
H     1.1497048    5.2107906   -4.5360768 
H     0.7276371    6.9470669   -4.4542311 
H     2.3995105    6.4180102   -4.1236528 
H    -0.7952451    4.7496682   -2.9289372 
H    -1.1231359    6.4958280   -2.8349763 
H    -0.8607777    5.5670829   -1.3369455 
H     0.6154645    8.1416033   -2.1824720 
H     2.2908283    7.6456299   -1.8281210 
H     0.9852315    7.2457953   -0.6773181 
H     3.4012640    1.2086424    1.8240218 
H     6.4281560   -2.2471103    2.8461790 
H     5.1336033   -1.7069943    3.9495175 
H     6.8090176   -1.1237741    4.1730276 
H     6.8717865    1.1057121    1.1046364 
H     7.8490871    0.4938804    2.4733966 
H     7.4159319   -0.5945742    1.1228662 
H     5.2020709    1.9479212    2.8233569 
H     6.0849583    1.2038734    4.1761626 
H     4.3606227    0.8060636    3.9102882 
H     5.6643202   -2.3370109    0.8578544 
H     2.0901848   -1.3683321   -1.3657422 
H     3.0277762   -4.6135635   -2.5450046 
H     1.9528037   -3.7533473   -1.4057132 
H     2.7030075   -2.8792840   -2.7759042 
H     3.4668582   -4.6493988    0.5093717 
H     5.2333520   -4.3954490    0.4422055 
H     4.4499863   -5.4623488   -0.7477843 
H     5.1905555   -2.3037949   -2.7368442 
H     6.2458693   -2.9616138   -1.4554736 
H     5.5083785   -4.0663681   -2.6507256 
