200
Energy =
C     0.8457676   -2.9360429    2.1257372 
C     0.7283504   -2.0022980    3.2017388 
C    -0.4939917   -1.3615723    3.4989236 
H     1.6375353   -1.6296133    3.6909117 
Pd    0.1257168   -0.9904311    1.3300749 
P    -0.4747772    1.2336143    0.9808119 
P     0.2244941   -1.4559158   -0.9524236 
H    -0.0214717   -3.5714991    1.9028876 
H    -1.4185071   -1.8107501    3.1002727 
C     4.6041486   -4.4393274    0.6456072 
C     3.4045886   -5.1100053    0.3675641 
C     2.1882338   -4.6216274    0.8603377 
C     2.1441041   -3.4433692    1.6392358 
C     3.3626048   -2.7748914    1.9090567 
C     4.5764249   -3.2706195    1.4252513 
H     5.5548353   -4.8237645    0.2621722 
H     3.4138397   -6.0238249   -0.2346187 
H     1.2575252   -5.1539031    0.6368528 
H     3.3611399   -1.8493246    2.4952611 
H     5.5071583   -2.7410604    1.6538079 
C    -1.0958239    1.5538623    6.5995474 
C    -1.9946909    1.4577866    5.5258238 
C    -1.7984718    0.4988865    4.5281349 
C    -0.6860207   -0.3720533    4.5720716 
C     0.2034479   -0.2748690    5.6657890 
C    -0.0038151    0.6758447    6.6711787 
H    -1.2508081    2.3027178    7.3827724 
H    -2.8511610    2.1369265    5.4622746 
H    -2.4964574    0.4394774    3.6865693 
H     1.0421447   -0.9732193    5.7507355 
H     0.6833155    0.7233007    7.5222094 
C    -2.3788159    5.6403406    3.5620102 
C    -1.0208659    5.5001553    4.2833476 
C    -1.2868334    5.4025859    5.8071502 
C    -0.1726686    6.7636526    3.9850988 
C    -0.2426201    4.2554834    3.8124494 
C    -0.7233924    3.4153901    2.7936466 
C     1.0048290    3.9428664    4.3909513 
C     1.7703481    2.8223961    4.0120922 
C     3.1675002    2.5734023    4.6138547 
C     4.1680345    3.5031707    3.8766615 
C     3.1876507    2.8933193    6.1274866 
C     3.6195799    1.1075232    4.4242224 
C     1.2449555    1.9901683    3.0086562 
C     0.0222907    2.2977550    2.3861472 
C    -2.2466349    1.5306740    0.6647389 
C    -2.7024265    2.7615576    0.1524683 
C    -4.0735684    2.9807372   -0.0395440 
C    -4.6220279    4.3032485   -0.6073887 
C    -5.4040013    4.0016366   -1.9117398 
C    -3.4911758    5.2994333   -0.9401516 
C    -5.5659060    4.9541624    0.4353814 
C    -4.9662175    1.9349017    0.2941921 
C    -4.5382509    0.6893098    0.7834434 
C    -3.1525157    0.5030716    0.9571622 
C    -5.5014271   -0.4693456    1.1076367 
C    -6.9807721   -0.0450030    1.0040259 
C    -5.2428454   -1.6208346    0.1022919 
C    -5.2365332   -0.9747320    2.5493706 
C     0.4160926    1.9838978   -0.4549221 
C     1.4896272    2.8702103   -0.2331570 
C     2.1966452    3.4083689   -1.3145574 
C     1.8448640    3.0797503   -2.6280029 
C     0.0463383    1.6377277   -1.7778020 
C     0.7658047    2.2126840   -2.8549164 
C    -1.1090941    0.7562053   -2.1283700 
C    -2.1866402    1.3536947   -2.8264930 
O    -2.1268648    2.7081865   -3.0265038 
C    -2.2226280    3.2307493   -4.3709098 
C    -0.8870815    3.8651463   -4.7684220 
C     0.2114833    2.8578863   -5.1201776 
O     0.3723068    1.8379731   -4.1153191 
C    -3.2934148    0.6000146   -3.2449927 
C    -3.3189920   -0.7759808   -2.9983824 
C    -2.2586218   -1.3947380   -2.3248439 
C    -1.1537736   -0.6400825   -1.8824150 
C     1.7458380   -0.9410511   -1.8154159 
C     1.8043243   -0.9647572   -3.2209725 
C     2.9771362   -0.5713774   -3.8846891 
C     3.1034295   -0.5969605   -5.4196963 
C     4.1962544   -1.6220555   -5.8174572 
C     3.5030406    0.8126564   -5.9246277 
C     1.7754010   -0.9964536   -6.0966923 
C     4.0605923   -0.1344244   -3.0950638 
C     4.0169649   -0.0648985   -1.6890721 
C     2.8378764   -0.4939678   -1.0543695 
C     5.2385842    0.4436927   -0.8992670 
C     5.7515859    1.7736223   -1.5055008 
C     6.3558169   -0.6283032   -0.9825396 
C     4.8905271    0.6974116    0.5836356 
C    -0.0126282   -3.2465975   -1.2724086 
C    -1.0316106   -3.9008064   -0.5508276 
C    -1.2632306   -5.2753109   -0.7171056 
C    -2.3365342   -6.0359530    0.0849181 
C    -1.6456828   -7.1502398    0.9133222 
C    -3.3581162   -6.6674539   -0.8946607 
C    -3.0989373   -5.1107579    1.0571197 
C    -0.4484666   -5.9656258   -1.6406465 
C     0.5820078   -5.3439752   -2.3704299 
C     0.7970191   -3.9669624   -2.1625452 
C     1.4086070   -6.1498205   -3.3923632 
C     1.9151950   -7.4706575   -2.7615155 
C     0.4906097   -6.4777063   -4.5996123 
C     2.6308804   -5.3528432   -3.8983510 
H    -2.9089900    6.5321908    3.9379435 
H    -3.0281991    4.7642038    3.7384445 
H    -2.2538183    5.7628600    2.4715536 
H    -1.8210463    6.3030484    6.1588333 
H    -1.9069985    4.5204258    6.0397593 
H    -0.3493175    5.3205159    6.3834509 
H    -0.7116625    7.6717423    4.3093200 
H     0.0330879    6.8501154    2.9036362 
H     0.7950557    6.7383295    4.5152950 
H    -1.6826730    3.6196767    2.3157629 
H     1.3963047    4.6033671    5.1702868 
H     5.1897472    3.3660276    4.2748751 
H     4.1854007    3.2793163    2.7950374 
H     3.8879227    4.5636899    4.0018614 
H     2.9877085    3.9590708    6.3299492 
H     2.4343690    2.2939370    6.6660329 
H     4.1821700    2.6627892    6.5475624 
H     2.8932823    0.4078362    4.8727263 
H     3.7455654    0.8460844    3.3595644 
H     4.5950537    0.9514541    4.9158446 
H     1.7906390    1.0984474    2.6821451 
H    -1.9713044    3.5260019   -0.1189965 
H    -6.2644640    3.3347636   -1.7305575 
H    -4.7404668    3.5139958   -2.6458634 
H    -5.7907246    4.9377862   -2.3523995 
H    -2.9191062    5.5827646   -0.0387042 
H    -2.7902771    4.8755371   -1.6793914 
H    -3.9228585    6.2232171   -1.3624995 
H    -6.4191404    4.2983034    0.6806214 
H    -5.9723001    5.9034721    0.0431259 
H    -5.0224014    5.1715222    1.3719622 
H    -6.0361520    2.1041244    0.1487376 
H    -2.7601139   -0.4583184    1.3074881 
H    -7.2161194    0.7812225    1.6978403 
H    -7.6316087   -0.8978649    1.2629660 
H    -7.2444784    0.2737294   -0.0196278 
H    -4.1903603   -1.9523522    0.1313955 
H    -5.8853793   -2.4887242    0.3359568 
H    -5.4585660   -1.2930875   -0.9287376 
H    -4.2133397   -1.3738527    2.6646368 
H    -5.9387650   -1.7882850    2.8031983 
H    -5.3694365   -0.1615709    3.2843146 
H     1.7653339    3.1524086    0.7860230 
H     3.0278045    4.0964902   -1.1299298 
H     2.4052422    3.4904028   -3.4724646 
H    -2.5141413    2.4253968   -5.0703441 
H    -3.0205437    3.9933615   -4.3631255 
H    -1.0435241    4.5174619   -5.6481836 
H    -0.5562780    4.5170850   -3.9397336 
H     1.1687462    3.3784065   -5.3140339 
H    -0.0484944    2.2901184   -6.0284504 
H    -4.1240495    1.0974771   -3.7544239 
H    -4.1732102   -1.3748463   -3.3303022 
H    -2.2879882   -2.4739081   -2.1570420 
H     0.9194381   -1.2690198   -3.7845021 
H     4.3093722   -1.6557843   -6.9159283 
H     5.1766066   -1.3584463   -5.3837928 
H     3.9304002   -2.6341696   -5.4653652 
H     4.4814695    1.1312887   -5.5261663 
H     3.5722895    0.8192888   -7.0269615 
H     2.7495132    1.5564814   -5.6165566 
H     0.9629290   -0.3006601   -5.8239404 
H     1.8951166   -0.9752680   -7.1937368 
H     1.4659107   -2.0195407   -5.8174456 
H     4.9785298    0.1792404   -3.6025601 
H     2.7406037   -0.4699683    0.0346602 
H     6.0897272    1.6512362   -2.5484958 
H     4.9586727    2.5405426   -1.4908311 
H     6.6105654    2.1489410   -0.9216252 
H     7.2449046   -0.3058092   -0.4108668 
H     6.6655978   -0.7986689   -2.0284278 
H     6.0038522   -1.5902192   -0.5723148 
H     4.6009554   -0.2332448    1.0992755 
H     4.0618096    1.4210826    0.6824276 
H     5.7681792    1.1096375    1.1109530 
H    -1.6361572   -3.3187787    0.1517000 
H    -1.1203437   -7.8740868    0.2671507 
H    -2.3939767   -7.7072202    1.5046704 
H    -0.9061389   -6.7183516    1.6111987 
H    -4.1296826   -7.2256672   -0.3352303 
H    -3.8607915   -5.8870187   -1.4927338 
H    -2.8729846   -7.3715750   -1.5923335 
H    -2.4221260   -4.6478207    1.7985728 
H    -3.8484917   -5.6967245    1.6159002 
H    -3.6348149   -4.3059414    0.5247393 
H    -0.6221842   -7.0361948   -1.7889143 
H     1.6033382   -3.4509317   -2.6854512 
H     1.0859321   -8.1219283   -2.4369696 
H     2.5105618   -8.0370019   -3.4989074 
H     2.5552128   -7.2714525   -1.8848796 
H     1.0465462   -7.0559061   -5.3593183 
H     0.1191765   -5.5511373   -5.0717049 
H    -0.3839314   -7.0749655   -4.2873754 
H     3.2939735   -5.0540250   -3.0669899 
H     2.3302986   -4.4413845   -4.4443166 
H     3.2173998   -5.9757738   -4.5951573 
