200
Energy =
C     0.7975967   -2.9240635    2.1892778 
C     0.7881973   -1.9545129    3.2404194 
C    -0.3843236   -1.2425830    3.5756892 
H     1.7407641   -1.6199555    3.6706399 
Pd    0.1485058   -0.9652102    1.3727018 
P    -0.3452537    1.2817010    1.0077170 
P     0.1118377   -1.4854605   -0.8985890 
H    -0.1129179   -3.5173358    2.0320112 
H    -1.3464053   -1.6629948    3.2402030 
C     4.3887108   -4.6743898    0.5733762 
C     3.1467239   -5.3028721    0.4051441 
C     1.9847547   -4.7317467    0.9387385 
C     2.0400728   -3.5145709    1.6536916 
C     3.3003033   -2.8889614    1.8125517 
C     4.4592616   -3.4643612    1.2845428 
H     5.2964699   -5.1226266    0.1566430 
H     3.0797801   -6.2471809   -0.1438188 
H     1.0188552   -5.2284749    0.7968257 
H     3.3734591   -1.9337777    2.3441057 
H     5.4240569   -2.9658039    1.4249541 
C    -0.7482847    1.8202497    6.5697885 
C    -1.7340950    1.6616295    5.5835599 
C    -1.6074797    0.6573935    4.6203958 
C    -0.4861221   -0.2035276    4.6129882 
C     0.4915062   -0.0427850    5.6204638 
C     0.3580093    0.9571068    6.5899130 
H    -0.8473598    2.6042608    7.3276291 
H    -2.6032244    2.3261910    5.5613065 
H    -2.3729367    0.5516348    3.8455428 
H     1.3449996   -0.7262520    5.6686723 
H     1.1144856    1.0549197    7.3751558 
C    -0.5743985    6.5641222    2.8477885 
C    -0.3772195    5.6836676    4.1096895 
C    -1.7599480    5.3562885    4.7290756 
C     0.4419222    6.4840194    5.1431282 
C     0.3233433    4.3737136    3.6968403 
C    -0.3038356    3.5248158    2.7618871 
C     1.5837351    3.9918764    4.1887784 
C     2.2279910    2.7942655    3.8038792 
C     3.6439145    2.4648199    4.3165667 
C     4.6494566    3.3345928    3.5157808 
C     3.7761923    2.7835907    5.8252045 
C     3.9986121    0.9758061    4.1065752 
C     1.5652819    1.9663789    2.8864210 
C     0.3174587    2.3411094    2.3477886 
C    -2.1173485    1.6660386    0.8044933 
C    -2.5457453    2.9092454    0.2985446 
C    -3.9146773    3.1887788    0.1824570 
C    -4.4346040    4.5345200   -0.3570369 
C    -3.2825059    5.4580944   -0.8056766 
C    -5.2376684    5.2489237    0.7600637 
C    -5.3532808    4.2720826   -1.5775710 
C    -4.8331808    2.1880270    0.5781738 
C    -4.4347521    0.9303248    1.0615905 
C    -3.0512106    0.6854472    1.1640519 
C    -5.4289792   -0.1719672    1.4770210 
C    -5.1812659   -1.4323914    0.6098542 
C    -5.1981928   -0.5253219    2.9692687 
C    -6.8963209    0.2674971    1.2974354 
C     0.4839089    1.9559278   -0.5014289 
C     1.6061156    2.7995290   -0.3723191 
C     2.2693469    3.2767740   -1.5091109 
C     1.8250695    2.9245392   -2.7877641 
C     0.0186205    1.5907366   -1.7893903 
C     0.6964423    2.1024545   -2.9232455 
C    -1.1957828    0.7559694   -2.0422270 
C    -2.2861671    1.3916391   -2.6857646 
O    -2.1456848    2.7352424   -2.9299939 
C    -2.5143141    3.2426737   -4.2273931 
C    -1.6628848    2.6513461   -5.3543032 
C    -0.1527845    2.7273470   -5.1122663 
O     0.2364646    1.7160308   -4.1551964 
C    -3.4524409    0.6843763   -3.0131092 
C    -3.5260066   -0.6826375   -2.7283812 
C    -2.4543335   -1.3400951   -2.1124919 
C    -1.2885315   -0.6308058   -1.7604955 
C     1.5956057   -1.0511004   -1.8643771 
C     1.5610127   -1.1090679   -3.2697099 
C     2.7026064   -0.7806093   -4.0171105 
C     2.7212813   -0.8247236   -5.5565722 
C     3.7604848   -1.8757646   -6.0227947 
C     3.1128841    0.5746173   -6.0964305 
C     1.3406911   -1.1990002   -6.1356840 
C     3.8550610   -0.3811585   -3.3095375 
C     3.9082185   -0.2843214   -1.9057290 
C     2.7540447   -0.6411383   -1.1858636 
C     5.2036263    0.1745768   -1.2088267 
C     5.7434293    1.4635149   -1.8769551 
C     6.2555098   -0.9573189   -1.3385628 
C     4.9669056    0.4746005    0.2868408 
C    -0.2005066   -3.2719005   -1.1713461 
C     0.5785068   -4.0467331   -2.0472579 
C     0.3107343   -5.4163571   -2.2193404 
C     1.1046285   -6.2707711   -3.2275431 
C     0.2083757   -6.4851740   -4.4763266 
C     1.4677331   -7.6475802   -2.6188876 
C     2.4121686   -5.5732137   -3.6648233 
C    -0.7490359   -5.9833587   -1.4790894 
C    -1.5331909   -5.2387532   -0.5771680 
C    -1.2356528   -3.8707389   -0.4333537 
C    -2.6956594   -5.8493839    0.2298492 
C    -4.0249856   -5.2388291   -0.2860834 
C    -2.7642218   -7.3835838    0.0829425 
C    -2.5197036   -5.5102690    1.7325783 
H    -1.0692463    7.5141010    3.1177673 
H    -1.2029749    6.0588906    2.0937543 
H     0.3965526    6.8002416    2.3783882 
H    -2.2855015    6.2891121    5.0004856 
H    -2.4030069    4.7985547    4.0257617 
H    -1.6436715    4.7473979    5.6418128 
H    -0.1009620    7.4059798    5.4138438 
H     1.4264790    6.7831983    4.7426171 
H     0.6035158    5.9062337    6.0703333 
H    -1.2822004    3.7908147    2.3524569 
H     2.0920263    4.6470801    4.8989956 
H     5.6840448    3.1373027    3.8502000 
H     4.5861161    3.1108665    2.4360273 
H     4.4413612    4.4098050    3.6549719 
H     3.6363867    3.8568616    6.0378133 
H     3.0335832    2.2181672    6.4129390 
H     4.7842024    2.5079515    6.1811837 
H     3.2694284    0.3187602    4.6116823 
H     4.0316991    0.7040622    3.0381529 
H     4.9964049    0.7661692    4.5285581 
H     2.0167380    1.0250696    2.5550302 
H    -1.7975952    3.6346375   -0.0282265 
H    -2.6678501    4.9802056   -1.5874980 
H    -2.6232915    5.7275882    0.0385087 
H    -3.6958956    6.3962013   -1.2144282 
H    -6.0994106    4.6448283    1.0933338 
H    -4.5966242    5.4415920    1.6387953 
H    -5.6239279    6.2173215    0.3950684 
H    -4.7969976    3.7375315   -2.3660318 
H    -5.7197724    5.2272974   -1.9935601 
H    -6.2338025    3.6641595   -1.3077249 
H    -5.9007331    2.4045873    0.4903094 
H    -2.6828895   -0.2873443    1.5094912 
H    -5.3504620   -1.2143045   -0.4579818 
H    -5.8622339   -2.2475074    0.9131236 
H    -4.1452141   -1.7994008    0.7138849 
H    -5.3240714    0.3642651    3.6107628 
H    -5.9204540   -1.2937898    3.2971692 
H    -4.1840618   -0.9278616    3.1404354 
H    -7.1383771    1.1468640    1.9198225 
H    -7.5700792   -0.5519471    1.6016298 
H    -7.1221275    0.5126076    0.2446597 
H     1.9574142    3.0944982    0.6196017 
H     3.1409202    3.9291338   -1.3941284 
H     2.3476236    3.2750797   -3.6827699 
H    -3.5912323    3.0809605   -4.4249021 
H    -2.3523256    4.3293625   -4.1381473 
H    -1.9309699    1.5922683   -5.5210174 
H    -1.9078052    3.1956369   -6.2857769 
H     0.1512105    3.7272407   -4.7508487 
H     0.3934803    2.5128249   -6.0469804 
H    -4.2921739    1.1998594   -3.4871633 
H    -4.4264933   -1.2461766   -2.9934436 
H    -2.5239486   -2.4136745   -1.9231696 
H     0.6293171   -1.3878666   -3.7670713 
H     3.7965446   -1.9162223   -7.1261927 
H     4.7745588   -1.6341955   -5.6597856 
H     3.4962364   -2.8804041   -5.6484116 
H     4.1258420    0.8711658   -5.7742884 
H     3.0977679    0.5780691   -7.2009672 
H     2.4010257    1.3334121   -5.7304646 
H     0.5674005   -0.4761384   -5.8224158 
H     1.3870297   -1.1983537   -7.2385317 
H     1.0243649   -2.2087056   -5.8177606 
H     4.7504095   -0.1199096   -3.8827164 
H     2.7294506   -0.5900745   -0.0938531 
H     6.0067841    1.3031636   -2.9361803 
H     4.9930369    2.2709610   -1.8295677 
H     6.6563336    1.8048809   -1.3576565 
H     7.1968790   -0.6703853   -0.8358222 
H     6.4842513   -1.1676672   -2.3979800 
H     5.8825795   -1.8896350   -0.8807202 
H     4.6659118   -0.4302240    0.8406768 
H     4.1835828    1.2415684    0.4225114 
H     5.8963914    0.8512122    0.7476604 
H     1.4013541   -3.5747001   -2.5857248 
H    -0.7287075   -7.0047564   -4.2097105 
H     0.7376914   -7.0953579   -5.2301218 
H    -0.0574871   -5.5174545   -4.9372952 
H     2.0554165   -8.2360648   -3.3447974 
H     2.0723224   -7.5314521   -1.7028080 
H     0.5731537   -8.2406428   -2.3640115 
H     2.2166022   -4.6347343   -4.2125194 
H     2.9778157   -6.2361299   -4.3417965 
H     3.0549782   -5.3377416   -2.7981757 
H    -0.9650590   -7.0455899   -1.6113639 
H    -1.8160422   -3.2554893    0.2644732 
H    -4.1738974   -5.4739023   -1.3544217 
H    -4.8817076   -5.6456133    0.2805562 
H    -4.0346970   -4.1407712   -0.1739894 
H    -3.5928026   -7.7788184    0.6953548 
H    -1.8317624   -7.8667941    0.4243648 
H    -2.9519506   -7.6873689   -0.9616551 
H    -2.5522654   -4.4213812    1.9165965 
H    -1.5575801   -5.8954641    2.1143012 
H    -3.3321875   -5.9671033    2.3244384 
