206
Energy =
C     0.2162174    1.6345704   -3.4361702 
C    -0.9710511    0.8747203   -3.6796627 
C    -2.1527180    1.1572336   -2.9555155 
H    -0.9204149   -0.0244058   -4.3065789 
Pd   -0.4322662    0.6227951   -1.5648196 
P    -1.5833087   -0.6958019   -0.0153914 
P     1.3746946    1.0265140   -0.1652031 
H     0.0812966    2.6841178   -3.1399538 
H    -2.2123800    2.1529177   -2.4882338 
C     4.0524944    0.8071485   -5.2125301 
C     3.1382110   -0.2402444   -5.0087842 
C     1.8946238    0.0114310   -4.4207854 
C     1.5283939    1.3222426   -4.0349199 
C     2.4619928    2.3621211   -4.2370391 
C     3.7088378    2.1087312   -4.8198950 
H     5.0264310    0.6062047   -5.6706888 
H     3.4008483   -1.2606092   -5.3057016 
H     1.2043801   -0.8204799   -4.2447863 
H     2.2037411    3.3796255   -3.9314660 
H     4.4123567    2.9348502   -4.9675028 
C    -5.9699575   -0.7988739   -3.1419352 
C    -5.7683697    0.3062026   -2.3015101 
C    -4.5159069    0.9254631   -2.2516693 
C    -3.4385795    0.4534693   -3.0379886 
C    -3.6539091   -0.6704072   -3.8677901 
C    -4.9063686   -1.2883684   -3.9177090 
H    -6.9530559   -1.2776098   -3.1935964 
H    -6.5895424    0.6896017   -1.6870073 
H    -4.3617454    1.7863260   -1.5929051 
H    -2.8400803   -1.0608016   -4.4851889 
H    -5.0543537   -2.1577886   -4.5659501 
C    -4.3774818   -0.7696564    5.0354930 
C    -5.2954411   -0.2903389    3.8842181 
C    -6.0242994   -1.5101816    3.2682090 
C    -6.3601162    0.6609697    4.4699496 
C    -4.4314492    0.3932889    2.8039764 
C    -3.5098210   -0.3694859    2.0543242 
C    -4.5172572    1.7704959    2.5315023 
C    -3.7240910    2.4147002    1.5559351 
C    -3.8518142    3.9327128    1.3279350 
C    -2.8010316    4.4501734    0.3219092 
C    -5.2670916    4.2391989    0.7742365 
C    -3.6451418    4.6792371    2.6703019 
C    -2.8494056    1.6188793    0.8061137 
C    -2.7523595    0.2331860    1.0383213 
C    -2.4625421   -2.0074155   -0.9547234 
C    -1.7300843   -2.5751627   -2.0193468 
C    -2.2471374   -3.6515010   -2.7567338 
C    -1.4803453   -4.3074361   -3.9216573 
C    -1.0356491   -5.7267250   -3.4829418 
C    -0.2310345   -3.4948093   -4.3194039 
C    -2.3978956   -4.4121675   -5.1663315 
C    -3.5160745   -4.1395434   -2.3867525 
C    -4.2911806   -3.5709581   -1.3595274 
C    -3.7454224   -2.4833708   -0.6458682 
C    -5.6575010   -4.1855589   -0.9941768 
C    -5.3895970   -5.4554986   -0.1430131 
C    -6.5231631   -3.2065415   -0.1733848 
C    -6.4480616   -4.5838943   -2.2645717 
C    -0.5098098   -1.6461133    1.1459025 
C    -0.4230551   -3.0492495    1.0452297 
C     0.4255384   -3.7573438    1.9020820 
C     1.1968263   -3.0896828    2.8580597 
C     0.2583276   -0.9487151    2.1092054 
C     1.1128271   -1.6899857    2.9675959 
C     0.1657177    0.5245099    2.3509898 
C    -0.4194521    0.9331047    3.5800780 
O    -0.8965322   -0.0695448    4.3720279 
C    -1.0496914    0.1834309    5.7824614 
C     0.2952236    0.3630073    6.5076539 
C     0.9097139   -0.9359322    7.0598138 
C     1.2859573   -2.0229665    6.0370124 
C     2.3704692   -1.6153922    5.0269858 
O     1.8306806   -0.9554185    3.8662414 
C    -0.4860761    2.2945829    3.9257790 
C     0.0578560    3.2530345    3.0659037 
C     0.6571755    2.8737929    1.8610316 
C     0.7062859    1.5139640    1.4916235 
C     2.3669722    2.4619056   -0.7409851 
C     1.6814304    3.6422435   -1.1053237 
C     2.3799089    4.7656605   -1.5689286 
C     1.6700855    6.0806142   -1.9476044 
C     0.1399142    5.9841540   -1.7722532 
C     1.9712602    6.4256005   -3.4286893 
C     2.1968134    7.2164537   -1.0327498 
C     3.7859180    4.6632959   -1.6909809 
C     4.4931092    3.4946184   -1.3672953 
C     3.7571568    2.3911651   -0.8849980 
C     6.0286208    3.3945694   -1.4575659 
C     6.5949785    3.4831838   -0.0152554 
C     6.4492029    2.0423136   -2.0869649 
C     6.6330278    4.5339334   -2.3053092 
C     2.5762748   -0.3118810    0.1424962 
C     3.5465203   -0.1531062    1.1536535 
C     4.5597685   -1.1077591    1.3143966 
C     5.7050375   -0.9294483    2.3297937 
C     5.4638475    0.2792377    3.2585796 
C     5.8512959   -2.2011742    3.2015590 
C     7.0214464   -0.6952129    1.5420863 
C     4.5409876   -2.2385824    0.4653082 
C     3.5669462   -2.4395509   -0.5266009 
C     2.5819942   -1.4412948   -0.6853484 
C     3.5480337   -3.6848197   -1.4351048 
C     4.7419219   -4.6245544   -1.1693921 
C     3.6021250   -3.2325350   -2.9153642 
C     2.2385510   -4.4729424   -1.1801348 
H    -3.5704609   -1.4245251    4.6646616 
H    -3.9119223    0.0944082    5.5380346 
H    -4.9634730   -1.3297894    5.7860791 
H    -5.3125059   -2.2750461    2.9132027 
H    -6.6547490   -1.2033167    2.4159067 
H    -6.6730557   -1.9877730    4.0236170 
H    -6.9667701    0.1215766    5.2176776 
H    -5.9029248    1.5274165    4.9794533 
H    -7.0446856    1.0370914    3.6893100 
H    -3.3738335   -1.4348044    2.2665694 
H    -5.2212791    2.3769294    3.1062001 
H    -2.8951059    5.5441017    0.2112527 
H    -2.9361919    4.0069550   -0.6813532 
H    -1.7747052    4.2278352    0.6629630 
H    -5.4334872    3.7211526   -0.1871470 
H    -5.3886726    5.3243093    0.6062863 
H    -6.0544376    3.9136625    1.4759721 
H    -4.4051618    4.3959844    3.4183841 
H    -2.6502098    4.4529951    3.0902627 
H    -3.7200457    5.7702373    2.5153147 
H    -2.2060781    2.0579057    0.0382782 
H    -0.7451145   -2.1579774   -2.2566159 
H    -0.4845993   -6.2281675   -4.2987604 
H    -1.9046366   -6.3553796   -3.2218814 
H    -0.3757957   -5.6733984   -2.5996988 
H     0.2774544   -3.9791584   -5.1704813 
H    -0.5026536   -2.4703927   -4.6314695 
H     0.4988767   -3.4259421   -3.4964287 
H    -2.7434120   -3.4135096   -5.4874410 
H    -3.2878429   -5.0347895   -4.9747095 
H    -1.8465667   -4.8701349   -6.0062707 
H    -3.9244151   -4.9929288   -2.9353617 
H    -4.3167414   -2.0056248    0.1521938 
H    -6.3423875   -5.9346807    0.1459490 
H    -4.8362610   -5.1997679    0.7779382 
H    -4.7904330   -6.1918485   -0.7071260 
H    -6.0750419   -2.9890796    0.8090399 
H    -6.6648172   -2.2503004   -0.7058054 
H    -7.5164082   -3.6504755    0.0115897 
H    -7.4376093   -4.9813931   -1.9793505 
H    -6.6031372   -3.7137614   -2.9243552 
H    -5.9379922   -5.3696927   -2.8471652 
H    -1.0240376   -3.5876453    0.3088764 
H     0.4837730   -4.8481950    1.8289366 
H     1.8531566   -3.6613648    3.5177036 
H    -1.5899872   -0.7002885    6.1567219 
H    -1.7110367    1.0561443    5.9343871 
H     0.9997269    0.8731383    5.8246066 
H     0.1376790    1.0542400    7.3558605 
H     1.8145059   -0.6719745    7.6405989 
H     0.2027969   -1.3768651    7.7888152 
H     1.6528855   -2.9049665    6.5936360 
H     0.3955055   -2.3641754    5.4761405 
H     3.0658606   -0.8777291    5.4595765 
H     2.9750568   -2.4856924    4.7141855 
H    -0.9436372    2.6083384    4.8665074 
H     0.0262147    4.3111090    3.3460457 
H     1.1074796    3.6362125    1.2223292 
H     0.5909014    3.6665339   -1.0235860 
H    -0.3288156    6.9416596   -2.0571728 
H    -0.2983379    5.1977732   -2.4135781 
H    -0.1411556    5.7738026   -0.7256497 
H     1.4892871    7.3804700   -3.7038190 
H     1.5840271    5.6419007   -4.1038414 
H     3.0539658    6.5300293   -3.6133307 
H     1.7001259    8.1709016   -1.2827338 
H     3.2845366    7.3612532   -1.1491742 
H     1.9956881    6.9886747    0.0289522 
H     4.3383049    5.5310469   -2.0601145 
H     4.2773699    1.4669960   -0.6245879 
H     6.1938342    2.6716276    0.6172253 
H     7.6964606    3.3971935   -0.0270183 
H     6.3262115    4.4451020    0.4551233 
H     6.1370325    1.1813819   -1.4713398 
H     7.5486689    1.9989705   -2.1790802 
H     6.0087118    1.9164069   -3.0902488 
H     7.7256979    4.4008128   -2.3834934 
H     6.4561013    5.5256774   -1.8538923 
H     6.2169555    4.5385987   -3.3286967 
H     3.4988769    0.7282654    1.7973062 
H     4.5054880    0.1881368    3.7980248 
H     5.4518709    1.2299221    2.6969826 
H     6.2752917    0.3461252    4.0036242 
H     6.0902226   -3.0920936    2.5962847 
H     6.6668791   -2.0686760    3.9342066 
H     4.9198797   -2.4064759    3.7555441 
H     7.2569297   -1.5514824    0.8863736 
H     7.8670155   -0.5566534    2.2395150 
H     6.9443588    0.2061572    0.9092751 
H     5.3277638   -2.9865283    0.5877840 
H     1.8087504   -1.5327872   -1.4563208 
H     4.6850278   -5.4952065   -1.8454576 
H     5.7071879   -4.1208263   -1.3535228 
H     4.7398494   -5.0074061   -0.1335812 
H     4.5227495   -2.6583867   -3.1179120 
H     2.7453209   -2.5900478   -3.1738833 
H     3.5823861   -4.1103288   -3.5858844 
H     2.2065464   -4.8476077   -0.1433977 
H     1.3456022   -3.8425911   -1.3300564 
H     2.1706248   -5.3361731   -1.8663054 
