197
Energy =
C    -0.2353480   -3.2843742    1.7867540 
C    -0.4744210   -3.7940790    0.4761915 
C     0.5354898   -3.7313624   -0.5120335 
H    -1.4935432   -4.0824928    0.1858903 
Pd    0.0272011   -1.6557382    0.2857561 
P     0.3371606   -0.3164095   -1.6073253 
P    -0.0355065    0.1951733    1.6946285 
H     0.7961396   -3.3506488    2.1616404 
H     1.5689694   -3.5796400   -0.1605034 
C    -3.1914957   -2.9630338    4.8986904 
C    -1.8600569   -3.2789176    5.2050345 
C    -0.9117830   -3.3869217    4.1821207 
C    -1.2717471   -3.1837211    2.8333080 
C    -2.6181924   -2.8726553    2.5380165 
C    -3.5672773   -2.7638647    3.5593630 
H    -3.9350791   -2.8712340    5.6973398 
H    -1.5535275   -3.4381138    6.2436223 
H     0.1256490   -3.6311724    4.4264238 
H    -2.9151027   -2.6918737    1.4984923 
H    -4.6039653   -2.5144806    3.3128898 
C     0.2683175   -5.2000482   -4.5413339 
C     1.2711417   -4.2880540   -4.1777287 
C     1.3521670   -3.8201598   -2.8633851 
C     0.4189282   -4.2389872   -1.8880259 
C    -0.5781065   -5.1672127   -2.2630136 
C    -0.6461002   -5.6477354   -3.5753571 
H     0.2074943   -5.5707441   -5.5697133 
H     1.9928478   -3.9378587   -4.9214257 
H     2.1306384   -3.0996831   -2.5891673 
H    -1.2815013   -5.5461506   -1.5146489 
H    -1.4090987   -6.3861164   -3.8421046 
C    -6.3992821    1.7449810    0.4875689 
C    -5.1872638    0.7943394    0.4077576 
C    -4.9103948    0.4781601   -1.0831720 
C    -5.5448626   -0.5196683    1.1476062 
C    -3.9227856    1.4034050    1.0474935 
C    -2.7229591    0.6602927    1.0672015 
C    -3.9036482    2.6808583    1.6310866 
C    -2.7487847    3.2451613    2.2224194 
C    -2.8098864    4.6599331    2.8292622 
C    -3.8969867    4.6976180    3.9334055 
C    -3.1631145    5.6736884    1.7102956 
C    -1.4596299    5.0759833    3.4501082 
C    -1.5744953    2.4815424    2.2194122 
C    -1.5656884    1.1920196    1.6483015 
C     0.2445649   -0.2030693    3.4659274 
C     1.3425520   -1.0178973    3.8065394 
C     1.6426174   -1.2966846    5.1503321 
C     2.8735004   -2.1284794    5.5626553 
C     2.4536577   -3.2600386    6.5347423 
C     3.5719202   -2.7709034    4.3449843 
C     3.8823924   -1.1874067    6.2713358 
C     0.7863936   -0.7616935    6.1347236 
C    -0.3513223    0.0064576    5.8246799 
C    -0.6101487    0.2798674    4.4685445 
C    -1.2399058    0.5749630    6.9490777 
C    -1.6636870   -0.5525218    7.9228923 
C    -2.5198687    1.2354033    6.3923139 
C    -0.4215823    1.6445791    7.7189384 
C     1.3286676    1.3769572    1.2516094 
C     2.5180636    1.3693245    2.0067470 
C     3.5943765    2.1972318    1.6692993 
C     3.4854258    3.0752230    0.5894561 
C     1.2064373    2.2565222    0.1390113 
C     2.2903052    3.1237720   -0.1411328 
C    -0.0109480    2.3747453   -0.7185103 
C    -0.6741269    3.6232011   -0.7605699 
O    -0.2004223    4.6660506    0.0136189 
C     0.4828073    5.6994028   -0.7255796 
C     1.9790440    5.3943431   -0.7738009 
O     2.1832873    4.0256428   -1.1835848 
C    -1.8208447    3.8228630   -1.5427206 
C    -2.2994413    2.7835851   -2.3425315 
C    -1.6390767    1.5496415   -2.3544254 
C    -0.5031372    1.3325664   -1.5506242 
C     2.0924934    0.0788227   -1.9229655 
C     2.4668832    1.1298256   -2.7846603 
C     3.8218690    1.4037912   -3.0177586 
C     4.2803690    2.5377738   -3.9544170 
C     3.0849325    3.3013255   -4.5627301 
C     5.1208797    1.9316971   -5.1073116 
C     5.1385416    3.5462756   -3.1478192 
C     4.7841737    0.6051879   -2.3546298 
C     4.4403557   -0.4359648   -1.4765709 
C     3.0687604   -0.6852843   -1.2724862 
C     5.4768436   -1.3091448   -0.7433675 
C     5.2273937   -1.2250230    0.7847122 
C     6.9242796   -0.8598309   -1.0283605 
C     5.3106469   -2.7782088   -1.2127702 
C    -0.3472527   -1.0513629   -3.1398536 
C    -1.5583293   -1.7630433   -3.0251739 
C    -2.2414701   -2.1994746   -4.1702297 
C    -3.6373743   -2.8480415   -4.0891116 
C    -3.7465557   -4.0529339   -5.0545119 
C    -4.6777146   -1.7704407   -4.4970840 
C    -3.9625593   -3.3385712   -2.6607428 
C    -1.6472442   -1.9405691   -5.4266433 
C    -0.4221412   -1.2665061   -5.5693393 
C     0.2214173   -0.8187486   -4.3977956 
C     0.2131054   -0.9596413   -6.9402329 
C     0.2864508    0.5801101   -7.1172803 
C     1.6447962   -1.5508820   -6.9962957 
C    -0.6034039   -1.5503180   -8.1081030 
H    -7.2750375    1.2700123    0.0126806 
H    -6.6701898    1.9754117    1.5328527 
H    -6.2077970    2.6955752   -0.0406569 
H    -5.7820939   -0.0273502   -1.5355080 
H    -4.7129303    1.4030565   -1.6493836 
H    -4.0336909   -0.1806997   -1.2059527 
H    -6.4673925   -0.9572076    0.7262678 
H    -5.7071505   -0.3339764    2.2235662 
H    -4.7414611   -1.2687415    1.0477946 
H    -2.6759089   -0.3373807    0.6168529 
H    -4.8202495    3.2756370    1.6259958 
H    -3.9467027    5.7049302    4.3837963 
H    -4.8977030    4.4599311    3.5330212 
H    -3.6698461    3.9721912    4.7342745 
H    -3.2336628    6.6936548    2.1289836 
H    -4.1309729    5.4372151    1.2347801 
H    -2.3800408    5.6657313    0.9337878 
H    -1.1616380    4.3981595    4.2704299 
H    -1.5433318    6.0924512    3.8721771 
H    -0.6575659    5.0864597    2.6919575 
H    -0.6492809    2.8805237    2.6415025 
H     1.9652684   -1.4290555    3.0069106 
H     1.9956563   -2.8637570    7.4566535 
H     3.3369256   -3.8530071    6.8304773 
H     1.7274758   -3.9438645    6.0609364 
H     3.9666752   -2.0124788    3.6463261 
H     2.8876890   -3.4357708    3.7864651 
H     4.4255604   -3.3818944    4.6848672 
H     4.7795121   -1.7502624    6.5859068 
H     4.2019342   -0.3759095    5.5936076 
H     3.4376319   -0.7245415    7.1691361 
H     1.0125965   -0.9603115    7.1872950 
H    -1.4791774    0.8752585    4.1871672 
H    -2.2619863   -1.3160424    7.3979243 
H    -2.2774623   -0.1344532    8.7401272 
H    -0.7943482   -1.0528574    8.3829679 
H    -2.2899383    2.1031016    5.7494667 
H    -3.1219220    0.5196048    5.8048200 
H    -3.1429426    1.5987749    7.2275812 
H     0.4891324    1.2101277    8.1669713 
H    -0.1120976    2.4611970    7.0429481 
H    -1.0282235    2.0793134    8.5335407 
H     2.6052075    0.7216494    2.8810557 
H     4.5139341    2.1633443    2.2623704 
H     4.3080279    3.7384290    0.3065135 
H     0.0634717    5.7633142   -1.7460458 
H     0.2973939    6.6529050   -0.2020795 
H     2.4438207    5.5564804    0.2155038 
H     2.4833663    6.0367013   -1.5160415 
H    -2.3178810    4.7969666   -1.5173938 
H    -3.1850221    2.9342760   -2.9679119 
H    -2.0081610    0.7519118   -3.0029353 
H     1.6886925    1.7462429   -3.2401832 
H     2.4593308    3.7548870   -3.7750920 
H     2.4508031    2.6414076   -5.1813875 
H     3.4562826    4.1100027   -5.2157140 
H     6.0181891    1.4106673   -4.7307909 
H     4.5232678    1.2056201   -5.6870105 
H     5.4573517    2.7285080   -5.7943349 
H     4.5379206    3.9843892   -2.3328614 
H     5.4866908    4.3617617   -3.8066672 
H     6.0298418    3.0672120   -2.7069686 
H     5.8412770    0.8206907   -2.5289949 
H     2.7458715   -1.4711036   -0.5806728 
H     5.9525597   -1.8580154    1.3264308 
H     5.3339356   -0.1867303    1.1421698 
H     4.2132947   -1.5692950    1.0535459 
H     7.1735086   -0.9407984   -2.1008701 
H     7.6298686   -1.5018442   -0.4735360 
H     7.0965949    0.1831044   -0.7085196 
H     6.0447416   -3.4295842   -0.7059368 
H     4.3021470   -3.1667445   -0.9841774 
H     5.4668488   -2.8627203   -2.3023724 
H    -1.9659165   -1.9463504   -2.0257422 
H    -3.6274747   -3.7513806   -6.1089227 
H    -4.7408871   -4.5230092   -4.9585079 
H    -2.9789993   -4.8103162   -4.8259867 
H    -4.4989110   -1.4168766   -5.5274897 
H    -5.7013307   -2.1838490   -4.4480173 
H    -4.6233499   -0.8979665   -3.8226570 
H    -3.2037771   -4.0559953   -2.3035114 
H    -4.9430786   -3.8448827   -2.6550575 
H    -4.0223577   -2.5050571   -1.9393830 
H    -2.1722380   -2.2742569   -6.3239760 
H     1.1705543   -0.2806407   -4.4683627 
H     0.7293609    0.8321509   -8.0973419 
H     0.9079764    1.0494992   -6.3347425 
H    -0.7208169    1.0291540   -7.0663189 
H     1.6169000   -2.6505001   -6.9069906 
H     2.1228337   -1.2978986   -7.9592460 
H     2.2858004   -1.1562508   -6.1884659 
H    -0.1037651   -1.3191920   -9.0645125 
H    -1.6211274   -1.1244472   -8.1537920 
H    -0.6880431   -2.6487981   -8.0309425 
