206
Energy =
C     0.3330229    1.4002297   -3.5299348 
C    -0.8108566    0.5735073   -3.7708310 
C    -2.0330298    0.8456180   -3.1138814 
H    -0.6952505   -0.3631333   -4.3303725 
Pd   -0.3445306    0.4928895   -1.6266208 
P    -1.4118100   -0.8586497   -0.0649831 
P     1.3424587    1.1827121   -0.1671710 
H     0.1515857    2.4656825   -3.3333791 
H    -2.1540094    1.8620353   -2.7057261 
C     4.3068705    0.5057596   -4.9281053 
C     3.3909893   -0.5383706   -4.7119152 
C     2.0985667   -0.2592316   -4.2581245 
C     1.6887191    1.0727695   -4.0101787 
C     2.6236619    2.1105298   -4.2177641 
C     3.9152017    1.8293790   -4.6799721 
H     5.3180573    0.2863713   -5.2860087 
H     3.6887416   -1.5758536   -4.8975759 
H     1.4028186   -1.0853075   -4.0759675 
H     2.3308600    3.1457041   -4.0139772 
H     4.6181399    2.6514254   -4.8489322 
C    -5.7513997   -1.2907144   -3.3184492 
C    -5.6258875   -0.1397763   -2.5254756 
C    -4.4044685    0.5372841   -2.4689354 
C    -3.2822656    0.0790266   -3.1992311 
C    -3.4215516   -1.0912503   -3.9796121 
C    -4.6431997   -1.7677549   -4.0361158 
H    -6.7113415   -1.8127747   -3.3835706 
H    -6.4822302    0.2332902   -1.9541778 
H    -4.3097231    1.4350691   -1.8497326 
H    -2.5737054   -1.4704021   -4.5564622 
H    -4.7341466   -2.6711558   -4.6471498 
C    -3.3528430    4.0927020    0.1934767 
C    -4.3177711    3.4370622    1.2048646 
C    -4.2477195    4.2415861    2.5274454 
C    -5.7584458    3.4951711    0.6350599 
C    -3.9489074    1.9655325    1.4725826 
C    -2.9704801    1.2927315    0.7241563 
C    -4.6130683    1.2345876    2.4783931 
C    -4.3032464   -0.1042100    2.7938497 
C    -5.1093990   -0.8541194    3.8735661 
C    -6.5309564   -1.1205831    3.3112349 
C    -4.4590221   -2.2061342    4.2381036 
C    -5.2247048   -0.0032471    5.1622030 
C    -3.2864175   -0.7321379    2.0520383 
C    -2.6540789   -0.0483084    0.9982807 
C    -2.2135386   -2.2661635   -0.9302431 
C    -1.5054162   -2.8287419   -2.0150942 
C    -1.9933729   -3.9639146   -2.6789375 
C    -1.2334464   -4.6282159   -3.8444560 
C    -2.1996723   -4.9348694   -5.0157438 
C    -0.6098498   -5.9502407   -3.3249278 
C    -0.1024618   -3.7285129   -4.3854451 
C    -3.2074689   -4.5217958   -2.2187992 
C    -3.9450261   -3.9739546   -1.1559903 
C    -3.4328659   -2.8206458   -0.5256173 
C    -5.2282001   -4.6292251   -0.6071471 
C    -6.3431350   -3.5717795   -0.4190701 
C    -5.7621134   -5.7357990   -1.5406458 
C    -4.8859709   -5.2585526    0.7700817 
C    -0.2239880   -1.6718192    1.0858739 
C     0.0798267   -3.0414648    0.9532672 
C     1.0105917   -3.6318979    1.8142155 
C     1.6299749   -2.8829011    2.8200073 
C     0.4105392   -0.8877378    2.0784080 
C     1.3239773   -1.5173821    2.9640596 
C     0.1186646    0.5613257    2.3079886 
C    -0.5748732    0.8990515    3.5001190 
O    -0.9804209   -0.1570888    4.2612067 
C    -1.3057417    0.0704748    5.6446535 
C    -0.0609193    0.3436522    6.5032656 
C     0.6399247   -0.9155839    7.0443460 
C     1.2218012   -1.8982358    6.0115999 
C     2.3524202   -1.3298813    5.1366913 
O     1.8686895   -0.7166089    3.9252936 
C    -0.8237628    2.2439484    3.8278950 
C    -0.3695399    3.2573570    2.9780769 
C     0.3199268    2.9498914    1.8006177 
C     0.5613790    1.6045454    1.4560696 
C     2.0870254    2.7397997   -0.7989085 
C     1.2016866    3.7424001   -1.2515290 
C     1.6855106    4.9226124   -1.8323894 
C     0.7478641    6.0189548   -2.3741079 
C     1.1003422    7.3770590   -1.7164727 
C    -0.7353062    5.7090181   -2.0812313 
C     0.9359112    6.1169209   -3.9105360 
C     3.0865539    5.0662706   -1.9555548 
C     3.9950240    4.0817698   -1.5316364 
C     3.4701345    2.9077648   -0.9495613 
C     5.5192768    4.2880298   -1.6410859 
C     6.2561055    2.9408799   -1.8338339 
C     5.8833684    5.2109950   -2.8270273 
C     6.0014108    4.9450014   -0.3200957 
C     2.7311960    0.0621333    0.2106531 
C     2.8734586   -1.1180013   -0.5413097 
C     3.9693450   -1.9666677   -0.3244807 
C     4.1687792   -3.2749427   -1.1124982 
C     5.3984797   -3.1102411   -2.0429113 
C     4.4091064   -4.4488486   -0.1306183 
C     2.9356809   -3.6119225   -1.9761464 
C     4.9313089   -1.5679007    0.6300337 
C     4.8189013   -0.3910937    1.3921250 
C     3.6765812    0.4093277    1.1891826 
C     5.8922580    0.0507016    2.4086692 
C     7.1210160   -0.8823800    2.4042794 
C     5.2794165    0.0490233    3.8300817 
C     6.3708128    1.4823975    2.0567061 
H    -2.3075114    4.0398687    0.5452398 
H    -3.4070308    3.6157861   -0.8016409 
H    -3.6155937    5.1560871    0.0597040 
H    -3.2339230    4.1885966    2.9600587 
H    -4.9606334    3.8612330    3.2787409 
H    -4.4935890    5.3022525    2.3419583 
H    -6.0533569    4.5410557    0.4362926 
H    -5.8294002    2.9306533   -0.3117999 
H    -6.4884250    3.0639890    1.3419953 
H    -2.4189411    1.8017579   -0.0708475 
H    -5.4039263    1.7337708    3.0476070 
H    -7.1444983   -1.6608549    4.0543638 
H    -6.4806788   -1.7327941    2.3939320 
H    -7.0463833   -0.1765604    3.0622248 
H    -4.4556386   -2.9043045    3.3828877 
H    -5.0285161   -2.6872521    5.0515986 
H    -3.4167207   -2.0747173    4.5771672 
H    -4.2283619    0.2247944    5.5761718 
H    -5.7467651    0.9520652    4.9836933 
H    -5.7979830   -0.5540536    5.9283972 
H    -2.9719297   -1.7507424    2.2891059 
H    -0.5636982   -2.3622901   -2.3237821 
H    -1.6462220   -5.4012321   -5.8495158 
H    -2.6691748   -4.0093141   -5.3929643 
H    -3.0031926   -5.6310652   -4.7226518 
H    -0.0624662   -6.4647183   -4.1352273 
H     0.0981256   -5.7493124   -2.5013809 
H    -1.3874788   -6.6365214   -2.9471821 
H     0.6647504   -3.5245296   -3.6213005 
H    -0.4956497   -2.7632125   -4.7515255 
H     0.3997363   -4.2264015   -5.2323309 
H    -3.5861534   -5.4178516   -2.7155306 
H    -3.9853873   -2.3614558    0.2970997 
H    -7.2449121   -4.0471962    0.0050705 
H    -6.6138162   -3.1098924   -1.3820235 
H    -6.0381932   -2.7636262    0.2671811 
H    -5.9784823   -5.3426450   -2.5499176 
H    -5.0499448   -6.5737421   -1.6384380 
H    -6.6995087   -6.1483828   -1.1297452 
H    -5.7773885   -5.7481181    1.2018035 
H    -4.0883226   -6.0151378    0.6695445 
H    -4.5380810   -4.4907423    1.4834248 
H    -0.4210215   -3.6466219    0.1935426 
H     1.2444248   -4.6967777    1.7134114 
H     2.3423405   -3.3657561    3.4926897 
H    -1.8150037   -0.8547489    5.9601265 
H    -2.0413998    0.8907711    5.7256586 
H     0.6399139    0.9657194    5.9153792 
H    -0.3697237    0.9620402    7.3663039 
H     1.4551653   -0.5942399    7.7207714 
H    -0.0775831   -1.4684818    7.6810113 
H     1.6217696   -2.7702257    6.5610705 
H     0.4287833   -2.2922875    5.3490030 
H     2.8916385   -0.5194829    5.6526670 
H     3.0970784   -2.1081111    4.8903321 
H    -1.3599760    2.5059294    4.7424025 
H    -0.5488229    4.3044538    3.2435019 
H     0.6874672    3.7575307    1.1635173 
H     0.1240923    3.5751013   -1.1593845 
H     0.4330714    8.1700110   -2.0981891 
H     0.9829878    7.3237621   -0.6198136 
H     2.1386368    7.6806272   -1.9334296 
H    -1.3703528    6.5207879   -2.4753811 
H    -0.9287984    5.6270006   -0.9976801 
H    -1.0650527    4.7706223   -2.5632891 
H     0.2812416    6.9019613   -4.3291970 
H     0.6795709    5.1594159   -4.3988162 
H     1.9773506    6.3660619   -4.1773927 
H     3.4754536    5.9792320   -2.4140029 
H     4.1439539    2.1125479   -0.6262253 
H     5.8817458    2.4000521   -2.7192436 
H     7.3363067    3.1239890   -1.9678458 
H     6.1439631    2.2778763   -0.9603181 
H     5.4828495    4.8189343   -3.7787330 
H     6.9807192    5.2823249   -2.9203753 
H     5.5029306    6.2378159   -2.6905358 
H     7.0935834    5.1107817   -0.3476100 
H     5.7715108    4.2997763    0.5455513 
H     5.5064590    5.9191674   -0.1616329 
H     2.1101117   -1.3554751   -1.2868523 
H     6.3164826   -2.9092172   -1.4637886 
H     5.2471092   -2.2695695   -2.7424854 
H     5.5625619   -4.0310224   -2.6313479 
H     3.5537381   -4.5613724    0.5575347 
H     4.5337048   -5.3929357   -0.6901541 
H     5.3185196   -4.2997066    0.4761200 
H     2.0242796   -3.7067908   -1.3593521 
H     3.0936784   -4.5701824   -2.5006412 
H     2.7581708   -2.8389942   -2.7425898 
H     5.8043411   -2.2078893    0.7782327 
H     3.5239663    1.3173037    1.7821093 
H     7.8657505   -0.5175212    3.1325835 
H     6.8540331   -1.9145282    2.6922441 
H     7.6074902   -0.9119313    1.4133560 
H     5.0032260   -0.9771515    4.1244200 
H     4.3722367    0.6740935    3.8836399 
H     6.0111633    0.4320838    4.5637407 
H     6.8179284    1.5095540    1.0481591 
H     5.5429345    2.2115852    2.0841963 
H     7.1361591    1.8170279    2.7792348 
