197
Energy =
C    -0.7088616   -3.1448738    1.6658395 
C    -0.5895521   -3.6633114    0.3350097 
C     0.6492397   -3.5942280   -0.3423023 
H    -1.4903177   -3.9492357   -0.2219903 
Pd   -0.0647980   -1.5291465    0.3030941 
P     0.3528966   -0.2433916   -1.5906490 
P    -0.0995752    0.2985332    1.7358034 
H     0.1678824   -3.2314411    2.3211822 
H     1.5439981   -3.4560395    0.2861301 
C    -4.4207664   -2.4862069    3.7513220 
C    -4.4261686   -2.6656814    2.3576402 
C    -3.2291121   -2.8860341    1.6699924 
C    -1.9949830   -2.9478747    2.3614074 
C    -2.0054628   -2.7722476    3.7640619 
C    -3.2049932   -2.5409332    4.4482691 
H    -5.3583557   -2.3080281    4.2878142 
H    -5.3702256   -2.6275446    1.8040556 
H    -3.2526619   -2.9955003    0.5809460 
H    -1.0606465   -2.8091722    4.3173661 
H    -3.1892708   -2.4060344    5.5342673 
C     1.6339357   -4.7677045   -4.3529016 
C     2.6102815   -4.2326311   -3.4987118 
C     2.2660234   -3.8540876   -2.1980981 
C     0.9413500   -4.0004544   -1.7221345 
C    -0.0326822   -4.5295674   -2.5993371 
C     0.3122306   -4.9073606   -3.9000853 
H     1.9011981   -5.0766982   -5.3685309 
H     3.6420285   -4.1135039   -3.8454888 
H     3.0298865   -3.4360825   -1.5341373 
H    -1.0651645   -4.6557026   -2.2622831 
H    -0.4545637   -5.3149824   -4.5660809 
C    -6.1918729    0.9284778    1.7338763 
C    -5.2340350    1.3482063    0.5882825 
C    -5.8626533    2.5150847   -0.2121517 
C    -5.0451955    0.1549496   -0.3733428 
C    -3.8959074    1.7814572    1.2174992 
C    -2.7596729    0.9510574    1.1999358 
C    -3.7832441    3.0261693    1.8655191 
C    -2.5919293    3.4847852    2.4661261 
C    -2.5462139    4.8760472    3.1251762 
C    -2.9321717    5.9476002    2.0728887 
C    -1.1375425    5.2104381    3.6592254 
C    -3.5496432    4.9104057    4.3058788 
C    -1.4735391    2.6391613    2.4182226 
C    -1.5646199    1.3795874    1.7967010 
C     0.2423864   -0.2280512    3.4585276 
C     1.2738324   -1.1601935    3.6641057 
C     1.5724800   -1.6419543    4.9521730 
C     2.7288130   -2.6449199    5.1335102 
C     2.8304196   -3.1608470    6.5837283 
C     2.5103856   -3.8603416    4.1955614 
C     4.0589823   -1.9394670    4.7612646 
C     0.7890721   -1.1667266    6.0211160 
C    -0.2684369   -0.2477288    5.8450025 
C    -0.5329650    0.2149214    4.5440548 
C    -1.0691335    0.2575986    7.0613929 
C    -1.4999096   -0.9291638    7.9589131 
C    -2.3380492    1.0277629    6.6339221 
C    -0.1548091    1.2108267    7.8756714 
C     1.2977174    1.4271674    1.2835079 
C     2.4912985    1.4078251    2.0306023 
C     3.5729486    2.2227366    1.6746630 
C     3.4603194    3.0990527    0.5926910 
C     1.1751708    2.2964596    0.1642712 
C     2.2575281    3.1580309   -0.1268697 
C    -0.0562037    2.4115732   -0.6763298 
C    -0.7536597    3.6412997   -0.6719643 
O    -0.2706200    4.6898390    0.0882073 
C     0.4043637    5.7142446   -0.6730589 
C     1.9035097    5.4265784   -0.7304343 
O     2.1320631    4.0676496   -1.1561983 
C    -1.9393549    3.8159610   -1.4008520 
C    -2.4112018    2.7794385   -2.2101865 
C    -1.7034025    1.5737799   -2.2872176 
C    -0.5361456    1.3762893   -1.5244011 
C     2.0887507    0.1808505   -1.9564155 
C     3.0828270   -0.4267886   -1.1679327 
C     4.4385150   -0.1470482   -1.3861476 
C     5.5517765   -0.8119869   -0.5539874 
C     6.2888209   -1.8383940   -1.4529848 
C     4.9809770   -1.5459850    0.6799765 
C     6.5567453    0.2563490   -0.0554346 
C     4.7612081    0.7505381   -2.4284952 
C     3.7905696    1.3872458   -3.2243967 
C     2.4357194    1.0974251   -2.9611120 
C     4.1545024    2.3672170   -4.3587966 
C     3.5242553    3.7529647   -4.0690476 
C     3.5965031    1.8166283   -5.6966913 
C     5.6796988    2.5475207   -4.5064521 
C    -0.3647146   -1.0960975   -3.0466620 
C    -1.6340522   -1.6861932   -2.8669043 
C    -2.2988901   -2.2983840   -3.9409448 
C    -3.7072814   -2.9084443   -3.7956758 
C    -4.7242192   -1.9337547   -4.4451015 
C    -4.0949001   -3.1164380   -2.3159867 
C    -3.7799229   -4.2839093   -4.5041813 
C    -1.6434614   -2.3111314   -5.1897784 
C    -0.3563396   -1.7784070   -5.3887144 
C     0.2793940   -1.1663659   -4.2896786 
C     0.3022111   -1.7931820   -6.7826409 
C     1.8434647   -1.7299565   -6.6807560 
C    -0.0780222   -3.0697562   -7.5699864 
C    -0.2040529   -0.5462247   -7.5556087 
H    -7.1651538    0.6015015    1.3249633 
H    -5.7595450    0.0973238    2.3177425 
H    -6.3748063    1.7705511    2.4241570 
H    -6.7974047    2.1803458   -0.6953508 
H    -6.1164268    3.3736414    0.4321865 
H    -5.1726119    2.8687062   -0.9976375 
H    -6.0073510   -0.1001555   -0.8504226 
H    -4.6917535   -0.7436090    0.1586225 
H    -4.3195202    0.3945469   -1.1709727 
H    -2.7817389   -0.0286042    0.7148489 
H    -4.6614919    3.6784525    1.8953006 
H    -2.8958205    6.9552799    2.5241889 
H    -2.2276189    5.9136551    1.2246208 
H    -3.9535576    5.7920521    1.6841593 
H    -1.1406276    6.2186132    4.1085002 
H    -0.3907991    5.1992209    2.8463146 
H    -0.8169896    4.4994552    4.4418569 
H    -4.5825800    4.7143984    3.9693920 
H    -3.5352601    5.9023207    4.7917816 
H    -3.2892667    4.1503703    5.0638444 
H    -0.5162438    2.9564395    2.8379791 
H     1.8478189   -1.5184763    2.8009005 
H     3.0376367   -2.3428223    7.2955683 
H     3.6583563   -3.8861345    6.6629920 
H     1.9039017   -3.6718741    6.8996361 
H     2.5208901   -3.5648329    3.1309937 
H     1.5455050   -4.3542701    4.4065257 
H     3.3156238   -4.6023119    4.3378117 
H     4.9087737   -2.6363539    4.8735588 
H     4.0491819   -1.5845946    3.7157881 
H     4.2367978   -1.0688329    5.4163312 
H     1.0023488   -1.5251412    7.0305236 
H    -1.3509833    0.9135085    4.3625049 
H    -2.1252718   -1.6449726    7.3977935 
H    -2.0880549   -0.5587895    8.8166649 
H    -0.6347410   -1.4795165    8.3658531 
H    -2.0946100    1.9457029    6.0704584 
H    -2.9989985    0.4037074    6.0064329 
H    -2.9058158    1.3326429    7.5296672 
H     0.7541742    0.6911420    8.2260175 
H     0.1603039    2.0711595    7.2593288 
H    -0.6920807    1.5959198    8.7608500 
H     2.5750117    0.7647150    2.9099089 
H     4.4978104    2.1842108    2.2591044 
H     4.2844837    3.7565059    0.3004498 
H    -0.0236528    5.7586650   -1.6909690 
H     0.2163669    6.6751682   -0.1636459 
H     2.3699551    5.5881259    0.2585790 
H     2.3918071    6.0864735   -1.4683183 
H    -2.4686408    4.7705865   -1.3294351 
H    -3.3256364    2.9123087   -2.7970773 
H    -2.0589287    0.7834996   -2.9531287 
H     2.7667228   -1.1014984   -0.3679281 
H     6.7389472   -1.3473186   -2.3331877 
H     5.5902565   -2.6128242   -1.8173632 
H     7.0966017   -2.3380206   -0.8886678 
H     4.3991952   -0.8592260    1.3197152 
H     4.3276517   -2.3904771    0.3954728 
H     5.8054386   -1.9614955    1.2843754 
H     7.0593094    0.7721818   -0.8909365 
H     7.3409331   -0.2180999    0.5605286 
H     6.0447075    1.0174451    0.5578525 
H     5.8158617    0.9644067   -2.6160672 
H     1.6442274    1.5965966   -3.5298002 
H     3.7647520    4.4539138   -4.8884523 
H     2.4267732    3.6940081   -3.9765875 
H     3.9095101    4.1666879   -3.1224545 
H     4.0299012    0.8274150   -5.9254953 
H     3.8463709    2.5024002   -6.5256311 
H     2.4977475    1.7122431   -5.6683678 
H     5.8907798    3.2512304   -5.3299401 
H     6.1323461    2.9636509   -3.5890460 
H     6.1852457    1.5949177   -4.7444242 
H    -2.0944940   -1.6497958   -1.8734073 
H    -4.7030184   -0.9532871   -3.9367307 
H    -5.7497452   -2.3388839   -4.3739948 
H    -4.4921231   -1.7702916   -5.5118425 
H    -4.1392956   -2.1658548   -1.7598912 
H    -5.0930321   -3.5821376   -2.2518863 
H    -3.3800440   -3.7866629   -1.8051906 
H    -3.5974168   -4.2056129   -5.5889686 
H    -4.7831567   -4.7246479   -4.3703835 
H    -3.0387609   -4.9855926   -4.0820149 
H    -2.1552025   -2.7698073   -6.0395180 
H     1.2782101   -0.7395818   -4.3996510 
H     2.2865548   -1.8116919   -7.6881777 
H     2.2372124   -2.5523201   -6.0597168 
H     2.1915178   -0.7777777   -6.2485615 
H    -1.1567255   -3.1167027   -7.7970889 
H     0.4570159   -3.0864347   -8.5351592 
H     0.1956038   -3.9794064   -7.0078015 
H     0.2397611   -0.5121494   -8.5669171 
H     0.0722496    0.3818949   -7.0244024 
H    -1.3031853   -0.5652111   -7.6601783 
