197
Energy =
C    -1.9568653    3.0431841    1.4883900 
C    -2.9027790    2.6388220    0.5189673 
C    -3.5807860    1.3822724    0.6128963 
H    -2.9991858    3.2267647   -0.4032534 
Pd   -1.3896440    1.0466326    0.5218133 
P    -1.2443936   -1.1335914   -0.2497768 
P     0.9052743    1.3576677    0.1663773 
H    -2.0303576    2.5802177    2.4852926 
H    -3.8140730    1.0006704    1.6176994 
C     0.4318396    6.6180038    1.4164969 
C     0.1869244    5.9434303    2.6212272 
C    -0.5929530    4.7816526    2.6283255 
C    -1.1450556    4.2697876    1.4333931 
C    -0.8797823    4.9558061    0.2271279 
C    -0.1021567    6.1159056    0.2183163 
H     1.0396749    7.5284537    1.4077119 
H     0.6098345    6.3185798    3.5584268 
H    -0.7816689    4.2588230    3.5711591 
H    -1.2705031    4.5717931   -0.7159588 
H     0.0945283    6.6286084   -0.7291357 
C    -5.9153040   -0.3120139   -2.5885903 
C    -4.8803289    0.5930892   -2.8789093 
C    -4.1281012    1.1568996   -1.8435260 
C    -4.3994705    0.8408508   -0.4911393 
C    -5.4522847   -0.0583315   -0.2176747 
C    -6.1973273   -0.6347961   -1.2533883 
H    -6.4970858   -0.7616446   -3.3997919 
H    -4.6503740    0.8523926   -3.9181657 
H    -3.2981320    1.8278951   -2.0896334 
H    -5.6794129   -0.3130789    0.8215654 
H    -6.9951859   -1.3452737   -1.0150164 
C     1.4563720   -4.0769100    5.0765061 
C     0.9774293   -2.8145857    4.3299794 
C     2.0928886   -1.7425531    4.4113271 
C    -0.3023647   -2.2925776    5.0332881 
C     0.6657912   -3.0947025    2.8467166 
C     0.0681626   -2.0858416    2.0588860 
C     0.9504431   -4.3223711    2.2274937 
C     0.6538565   -4.5890184    0.8693381 
C     1.0124739   -5.9536843    0.2520064 
C     0.5405781   -6.0627933   -1.2139825 
C     2.5537331   -6.1220022    0.2796147 
C     0.3419059   -7.0842104    1.0724583 
C     0.0331987   -3.5779180    0.1284314 
C    -0.2497331   -2.3320378    0.7207634 
C    -2.7732245   -2.1448078   -0.3827609 
C    -3.4698169   -2.2649913    0.8344092 
C    -4.5373597   -3.1646279    0.9678217 
C    -5.2811633   -3.3696307    2.3014381 
C    -4.7847483   -2.4009666    3.3959756 
C    -5.0327108   -4.8228197    2.7837156 
C    -6.8006145   -3.1431187    2.0970756 
C    -4.9035289   -3.9116694   -0.1700391 
C    -4.2392383   -3.8011511   -1.4057182 
C    -3.1491021   -2.9139790   -1.4928612 
C    -4.6825560   -4.6686520   -2.5998370 
C    -4.4115480   -6.1572572   -2.2597332 
C    -3.9172119   -4.3095585   -3.8913271 
C    -6.1959595   -4.4590037   -2.8599799 
C    -0.4521084   -0.9893530   -1.8987770 
C    -1.2824861   -0.7768839   -3.0188877 
C    -0.7308971   -0.6356644   -4.2961611 
C     0.6556723   -0.6896532   -4.4672379 
C     0.9625210   -0.9863788   -2.0438099 
C     1.4883119   -0.8728208   -3.3543608 
C     1.9257573   -1.0892953   -0.9067293 
C     2.8375866   -2.1683680   -0.8955789 
O     2.7616805   -3.1223324   -1.8928069 
C     3.8104912   -3.0477470   -2.8797071 
C     3.3622411   -2.1672900   -4.0438064 
O     2.8566190   -0.9107849   -3.5432310 
C     3.7846621   -2.3229924    0.1275561 
C     3.8647570   -1.3677822    1.1422627 
C     2.9973171   -0.2684501    1.1386769 
C     2.0256766   -0.1200349    0.1315411 
C     1.1932223    2.1023796   -1.4880460 
C     2.5028160    2.1123682   -2.0097746 
C     2.7644143    2.6756925   -3.2655505 
C     4.1734553    2.6803876   -3.8868294 
C     5.1983458    1.9582952   -2.9867524 
C     4.1235462    1.9443826   -5.2511882 
C     4.6341180    4.1456459   -4.0938383 
C     1.6794254    3.2413267   -3.9718609 
C     0.3585485    3.2325684   -3.4908789 
C     0.1294773    2.6336520   -2.2328890 
C    -0.8138283    3.8115234   -4.3138975 
C    -1.6448833    2.6380596   -4.8895810 
C    -0.3208886    4.6878439   -5.4860212 
C    -1.7283067    4.6825459   -3.4194044 
C     1.6856489    2.4463502    1.4177395 
C     1.3768404    2.1966546    2.7700566 
C     2.0184243    2.9134561    3.7942413 
C     1.7277822    2.6660940    5.2882412 
C     1.4592588    4.0108383    6.0106904 
C     0.4959793    1.7592429    5.4959093 
C     2.9673025    1.9809760    5.9206400 
C     2.9701122    3.8821862    3.4133756 
C     3.2630357    4.1877596    2.0712191 
C     2.5985956    3.4522231    1.0713897 
C     4.3293000    5.2429026    1.7170955 
C     4.2101038    5.7016656    0.2460628 
C     5.7241652    4.5981382    1.9326347 
C     4.1964921    6.4891981    2.6259674 
H     1.6407781   -3.8334647    6.1372154 
H     0.7005779   -4.8811364    5.0412329 
H     2.4002892   -4.4676225    4.6579924 
H     2.2957954   -1.4750036    5.4637701 
H     3.0270910   -2.1197726    3.9618540 
H     1.8123317   -0.8231905    3.8698375 
H    -0.0975016   -2.0917192    6.0998951 
H    -1.1145895   -3.0383198    4.9713082 
H    -0.6687481   -1.3541629    4.5825506 
H    -0.1610968   -1.1033445    2.4880133 
H     1.4201058   -5.1133713    2.8171758 
H     1.0157268   -5.2925760   -1.8461940 
H     0.8162854   -7.0520956   -1.6185843 
H    -0.5567843   -5.9612612   -1.2970456 
H     2.8387946   -7.1050907   -0.1362360 
H     2.9522219   -6.0606968    1.3073746 
H     3.0309240   -5.3337611   -0.3273380 
H    -0.7562027   -6.9669650    1.0744422 
H     0.5844737   -8.0683551    0.6334186 
H     0.6862330   -7.0920592    2.1210236 
H    -0.2341784   -3.7399849   -0.9184121 
H    -3.1439830   -1.6605692    1.6865965 
H    -5.3502393   -2.5714956    4.3280461 
H    -4.9330731   -1.3447665    3.1054371 
H    -3.7142127   -2.5515881    3.6226205 
H    -5.4068419   -5.5605574    2.0530479 
H    -5.5499404   -5.0027362    3.7431856 
H    -3.9534827   -5.0056289    2.9295792 
H    -7.3411494   -3.3010665    3.0470239 
H    -7.2229866   -3.8392704    1.3525869 
H    -7.0062080   -2.1135819    1.7544792 
H    -5.7368177   -4.6169634   -0.0861791 
H    -2.5783721   -2.8449331   -2.4191667 
H    -4.7196619   -6.8062364   -3.0989648 
H    -3.3364740   -6.3241101   -2.0685370 
H    -4.9694167   -6.4750040   -1.3617780 
H    -2.8334322   -4.4992492   -3.7950133 
H    -4.2876920   -4.9285980   -4.7263993 
H    -4.0619977   -3.2492742   -4.1660554 
H    -6.8080072   -4.7471597   -1.9882976 
H    -6.5240643   -5.0746466   -3.7161074 
H    -6.4085343   -3.4008997   -3.0914988 
H    -2.3663637   -0.7193704   -2.8880834 
H    -1.3860051   -0.4824399   -5.1588422 
H     1.1127749   -0.5821867   -5.4553596 
H     4.0072165   -4.0766312   -3.2265567 
H     4.7288878   -2.6442818   -2.4155779 
H     4.2150840   -1.9358124   -4.7051294 
H     2.5763137   -2.6710406   -4.6352553 
H     4.4480762   -3.1925721    0.1109030 
H     4.6076069   -1.4726605    1.9392438 
H     3.0855426    0.4847148    1.9250411 
H     3.3061456    1.6495149   -1.4326047 
H     5.3067587    2.4570218   -2.0066627 
H     6.1890117    1.9660108   -3.4732409 
H     4.9079035    0.9069814   -2.8161494 
H     5.1295562    1.9199722   -5.7069162 
H     3.4465531    2.4473490   -5.9634716 
H     3.7718768    0.9082878   -5.1091829 
H     4.6736130    4.6842746   -3.1304199 
H     5.6421436    4.1692995   -4.5448320 
H     3.9519971    4.6971684   -4.7640105 
H     1.8806856    3.6907096   -4.9471822 
H    -0.8847285    2.5567201   -1.8259005 
H    -2.5143074    3.0212600   -5.4539344 
H    -1.0302538    2.0246939   -5.5695349 
H    -2.0134126    1.9792453   -4.0853037 
H     0.2545517    4.1038916   -6.2249626 
H    -1.1874437    5.1208285   -6.0146307 
H     0.3120601    5.5202551   -5.1313731 
H    -2.2068869    4.0894637   -2.6204357 
H    -2.5400841    5.1243892   -4.0227874 
H    -1.1618239    5.5053854   -2.9504252 
H     0.6261796    1.4357124    3.0070105 
H     0.5864488    4.5284529    5.5757217 
H     1.2501955    3.8295819    7.0796088 
H     2.3234700    4.6936715    5.9534658 
H    -0.4096807    2.1924775    5.0337295 
H     0.2976837    1.6414733    6.5749710 
H     0.6485476    0.7506043    5.0789293 
H     3.8648200    2.6171433    5.8298209 
H     2.7946551    1.7853148    6.9942225 
H     3.1795817    1.0193109    5.4223611 
H     3.4929127    4.4341614    4.1998693 
H     2.7937641    3.6550218    0.0172069 
H     3.2013008    6.0945477    0.0285530 
H     4.4201393    4.8815072   -0.4626758 
H     4.9427334    6.5022679    0.0459061 
H     5.8496065    3.7119075    1.2855228 
H     6.5247945    5.3204512    1.6915222 
H     5.8547960    4.2762635    2.9808124 
H     4.3689129    6.2502938    3.6891768 
H     4.9449862    7.2471165    2.3361039 
H     3.1940400    6.9400061    2.5339139 
