100
Energy =
C    -1.9707904   -1.3303496   -2.5041633 
C    -2.8189524   -0.2472225   -2.1772485 
C    -3.3223867   -0.0760211   -0.8560446 
H    -2.9821962    0.5425354   -2.9198532 
Pd   -1.0627060   -0.0460059   -0.8467788 
P     1.2173740   -0.3904878   -1.1081796 
P    -0.7160783    0.5436808    1.4188640 
H    -1.9711865   -2.1865835   -1.8113998 
H    -3.4381375   -0.9808617   -0.2432366 
C    -0.3871014   -2.3721359   -6.3588575 
C    -0.1758319   -3.2003431   -5.2465063 
C    -0.6872657   -2.8347688   -3.9977848 
C    -1.4151499   -1.6331011   -3.8295148 
C    -1.6072555   -0.8023200   -4.9586770 
C    -1.1040393   -1.1729624   -6.2090814 
H     0.0053690   -2.6579943   -7.3399791 
H     0.3873804   -4.1325142   -5.3534692 
H    -0.5324726   -3.4905120   -3.1335113 
H    -2.1676234    0.1335384   -4.8655949 
H    -1.2741896   -0.5252457   -7.0753154 
C    -5.8440014    3.1643901    0.4278380 
C    -5.1825395    3.2501590   -0.8077799 
C    -4.3401264    2.2171791   -1.2298822 
C    -4.1538539    1.0630144   -0.4325789 
C    -4.8169996    0.9986253    0.8146359 
C    -5.6513876    2.0368867    1.2405258 
H    -6.5026110    3.9745997    0.7569229 
H    -5.3241693    4.1289464   -1.4456057 
H    -3.8282858    2.3106595   -2.1932984 
H    -4.6721663    0.1192850    1.4524021 
H    -6.1539130    1.9663915    2.2102980 
C    -2.4262623    1.9098330    3.2671102 
C    -3.1861389    3.0189385    3.6637141 
C    -3.3293330    4.1211352    2.8088795 
C    -2.7256610    4.1082404    1.5423756 
C    -1.9729827    2.9999543    1.1374371 
C    -1.7991634    1.9012543    2.0058903 
C    -1.0243543   -0.9167292    2.4973563 
C    -1.5543307   -2.1022600    1.9543061 
C    -1.7433806   -3.2307645    2.7638798 
C    -1.4070620   -3.1828374    4.1241954 
C    -0.8720005   -2.0064993    4.6729367 
C    -0.6717217   -0.8802800    3.8645668 
C     0.9739476    1.0557441    1.9956152 
C     1.1792520    2.3644342    2.4716530 
C     2.4179779    2.7481170    3.0004318 
C     3.4542021    1.8134257    3.0981996 
C     2.0492277    0.1249221    2.0275390 
C     3.2786463    0.5058931    2.6204274 
C     1.9270050   -1.2834093    1.5356017 
C     2.1889510   -2.3238183    2.4686528 
C     2.7280268   -1.9526052    3.8361490 
O     4.0847643   -1.4983837    3.7873049 
C     4.3667391   -0.5397713    2.7598205 
C     1.9853371   -3.6624677    2.1061921 
C     1.5200359   -3.9912766    0.8261556 
C     1.3304464   -2.9808886   -0.1209736 
C     1.5727484   -1.6274905    0.2049646 
C     1.9298415   -1.0332935   -2.6740810 
C     1.5579255   -0.3306583   -3.8393620 
C     2.1554242   -0.6354455   -5.0666098 
C     3.1181981   -1.6536303   -5.1456169 
C     3.4900002   -2.3565648   -3.9907644 
C     2.9059367   -2.0459343   -2.7536590 
C     2.2756356    1.0943056   -0.8859650 
C     3.6710765    0.9648455   -0.7402619 
C     4.4737685    2.1092102   -0.6719309 
C     3.8932733    3.3851402   -0.7655750 
C     2.5065470    3.5162788   -0.9243551 
C     1.6975357    2.3726086   -0.9832557 
H    -2.3326248    1.0526419    3.9393993 
H    -3.6716395    3.0177303    4.6450848 
H    -3.9255736    4.9841836    3.1220514 
H    -2.8578646    4.9535234    0.8601673 
H    -1.5222331    2.9789948    0.1383173 
H    -1.7873006   -2.1485190    0.8850762 
H    -2.1451340   -4.1511047    2.3279399 
H    -1.5538733   -4.0643531    4.7568037 
H    -0.5983758   -1.9688296    5.7325162 
H    -0.2200458    0.0222051    4.2904299 
H     0.3598978    3.0881831    2.4466113 
H     2.5603774    3.7719643    3.3603308 
H     4.4117147    2.0970462    3.5481551 
H     2.0814165   -1.1749071    4.2921090 
H     2.7347745   -2.8261554    4.5059817 
H     5.3248764   -0.0778808    3.0445318 
H     4.5099470   -1.0586873    1.7878761 
H     2.1814410   -4.4521178    2.8393455 
H     1.3283465   -5.0350832    0.5578702 
H     1.0002913   -3.2428251   -1.1316727 
H     0.8044112    0.4627272   -3.7787607 
H     1.8604457   -0.0845390   -5.9646553 
H     3.5812765   -1.8964072   -6.1075387 
H     4.2486610   -3.1442510   -4.0466804 
H     3.2261455   -2.5834862   -1.8558201 
H     4.1273208   -0.0297286   -0.6811681 
H     5.5572450    2.0065294   -0.5515490 
H     4.5258622    4.2775732   -0.7180685 
H     2.0523215    4.5096024   -1.0001667 
H     0.6111071    2.4662363   -1.1006077 
