100
Energy =
C    -1.1836739   -0.5826150   -3.1396876 
C    -2.3697021    0.0313396   -2.6706155 
C    -3.1476372   -0.5833638   -1.6456951 
H    -2.6220116    1.0472204   -2.9985671 
Pd   -1.0858545   -0.1508139   -0.9004439 
P     1.2392890    0.2457333   -0.7949645 
P    -1.1453017   -0.3581631    1.4229542 
H    -1.0986471   -1.6679531   -2.9809409 
H    -3.1016355   -1.6803839   -1.5733958 
C     1.4496334    0.8517229   -6.2160536 
C     0.4767323    1.7130501   -5.6812081 
C    -0.3714564    1.2745247   -4.6614558 
C    -0.2746757   -0.0456213   -4.1623388 
C     0.7213838   -0.8953394   -4.6978071 
C     1.5746451   -0.4519649   -5.7146493 
H     2.1096092    1.1995408   -7.0173852 
H     0.3831532    2.7356021   -6.0598565 
H    -1.1165742    1.9645015   -4.2541250 
H     0.8171187   -1.9172753   -4.3160220 
H     2.3325058   -1.1289358   -6.1221595 
C    -6.7164710    1.1446997    0.0264007 
C    -5.6909337    1.9837496   -0.4452252 
C    -4.5266441    1.4343204   -0.9904838 
C    -4.3593061    0.0311698   -1.0724898 
C    -5.3915747   -0.7983463   -0.5825345 
C    -6.5621255   -0.2470733   -0.0458262 
H    -7.6284394    1.5774564    0.4502611 
H    -5.8015472    3.0713594   -0.3827436 
H    -3.7246403    2.0995936   -1.3301030 
H    -5.2732185   -1.8864707   -0.6271670 
H    -7.3527081   -0.9077997    0.3242006 
C    -0.1621984    1.1396272    3.6311203 
C     0.1213316    2.3385190    4.2954770 
C    -0.1016226    3.5705775    3.6583095 
C    -0.6129394    3.6042129    2.3534308 
C    -0.8857839    2.4054963    1.6797264 
C    -0.6502213    1.1697421    2.3106307 
C    -2.5934935   -0.8564901    2.4457952 
C    -3.7808590   -0.1180722    2.2648078 
C    -4.8829643   -0.3420668    3.1002489 
C    -4.8117053   -1.3017628    4.1202526 
C    -3.6277361   -2.0298290    4.3127843 
C    -2.5180792   -1.8074629    3.4857406 
C     0.0945738   -1.7119633    1.6311222 
C    -0.4098396   -3.0211736    1.4536024 
C     0.4322605   -4.1340942    1.5372842 
C     1.7921085   -3.9562311    1.8242053 
C     1.4902982   -1.5279590    1.8140884 
C     2.3275938   -2.6680467    1.9577524 
C     2.1458950   -0.1868741    1.8651609 
C     2.9437320    0.1195904    2.9944159 
C     3.1371795   -0.9472649    4.0535642 
O     4.0044475   -2.0034184    3.6245813 
C     3.7930372   -2.4531958    2.2818051 
C     3.5589952    1.3768820    3.0953207 
C     3.3905285    2.3303590    2.0855378 
C     2.6594227    2.0100677    0.9335943 
C     2.0481011    0.7495923    0.8011554 
C     2.2430055   -1.2298549   -1.2316248 
C     3.6519219   -1.1911143   -1.1506862 
C     4.4019397   -2.3414840   -1.4284061 
C     3.7548045   -3.5410605   -1.7663561 
C     2.3542933   -3.5902445   -1.8249973 
C     1.6012426   -2.4388547   -1.5590565 
C     1.6789048    1.6040271   -1.9477438 
C     2.7202416    1.5241241   -2.8899083 
C     3.0120491    2.6281366   -3.7040982 
C     2.2760006    3.8150511   -3.5839851 
C     1.2206169    3.8924947   -2.6619746 
C     0.9147179    2.7889404   -1.8564713 
H     0.0005044    0.1804269    4.1349478 
H     0.5143972    2.3129302    5.3170467 
H     0.1177275    4.5049493    4.1851927 
H    -0.7990795    4.5631300    1.8587691 
H    -1.2930587    2.4191595    0.6614376 
H    -3.8418780    0.6441570    1.4820974 
H    -5.7986787    0.2366858    2.9455673 
H    -5.6750214   -1.4779582    4.7702586 
H    -3.5613934   -2.7702918    5.1167897 
H    -1.5950581   -2.3680106    3.6626641 
H    -1.4786683   -3.1685380    1.2638730 
H     0.0216277   -5.1395447    1.4004732 
H     2.4503430   -4.8250546    1.9308652 
H     3.6094037   -0.5279572    4.9555807 
H     2.1493746   -1.3651758    4.3450378 
H     4.2261595   -1.7278631    1.5623499 
H     4.3558033   -3.3953556    2.1959579 
H     4.1694611    1.6081637    3.9749135 
H     3.8544958    3.3177501    2.1746508 
H     2.5865858    2.7423595    0.1250897 
H     4.1596010   -0.2668370   -0.8539028 
H     5.4946461   -2.3045220   -1.3688034 
H     4.3441440   -4.4403621   -1.9733965 
H     1.8454570   -4.5292406   -2.0655678 
H     0.5072505   -2.4826952   -1.5687666 
H     3.2947251    0.6012122   -3.0044062 
H     3.8180040    2.5538846   -4.4411112 
H     2.5145738    4.6750238   -4.2182115 
H     0.6313766    4.8111731   -2.5737808 
H     0.0860818    2.8460134   -1.1416944 
