100
Energy =
C    -2.4041626    1.9165516    1.5269733 
C    -3.2698759    0.8922815    1.0429408 
C    -3.1878918   -0.4313324    1.5317680 
H    -3.8946496    1.0904658    0.1624804 
Pd   -1.1799583    0.2501916    0.6799485 
P    -0.2837071   -1.6472001   -0.3472003 
P     0.8724194    1.3692511    0.6545286 
H    -2.0753119    1.8464540    2.5732631 
H    -2.6653276   -0.5870699    2.4896651 
C    -2.1104884    5.8715009   -0.1487128 
C    -1.7663406    5.6331107    1.1892782 
C    -1.8692885    4.3431050    1.7242818 
C    -2.3217236    3.2647551    0.9326098 
C    -2.6681056    3.5211071   -0.4154731 
C    -2.5637364    4.8085259   -0.9488600 
H    -2.0273387    6.8789602   -0.5690930 
H    -1.4125422    6.4539233    1.8216573 
H    -1.5935400    4.1623603    2.7687635 
H    -3.0059265    2.7005400   -1.0587029 
H    -2.8311122    4.9863806   -1.9957526 
C    -5.6551547   -3.7330233    0.3231338 
C    -6.0575100   -2.4212610    0.0282442 
C    -5.2578721   -1.3375244    0.4069341 
C    -4.0431862   -1.5469785    1.0997173 
C    -3.6593606   -2.8736465    1.4042650 
C    -4.4522753   -3.9555057    1.0126178 
H    -6.2804133   -4.5799783    0.0227611 
H    -7.0034780   -2.2416952   -0.4930053 
H    -5.5975453   -0.3192411    0.1915643 
H    -2.7160454   -3.0508886    1.9334947 
H    -4.1315475   -4.9765150    1.2417372 
C     0.5585030    2.1298129    3.3213172 
C     0.5959201    2.9986732    4.4186158 
C     1.0302035    4.3242506    4.2488618 
C     1.4201797    4.7724733    2.9797261 
C     1.3902517    3.9031937    1.8780422 
C     0.9709408    2.5704401    2.0432755 
C     1.2916736    2.2779442   -0.8773835 
C     2.5796208    2.8259664   -1.0591869 
C     2.8979327    3.4754510   -2.2584199 
C     1.9411250    3.5720004   -3.2821537 
C     0.6631537    3.0219343   -3.1058035 
C     0.3368687    2.3770016   -1.9053882 
C     2.3347703    0.2601228    0.8999319 
C     3.0233845    0.2540872    2.1284906 
C     4.1613680   -0.5408400    2.3096363 
C     4.6568083   -1.2964106    1.2425203 
C     2.7940124   -0.5631705   -0.1647090 
C     3.9924003   -1.3035016    0.0066616 
C     2.1378367   -0.6318890   -1.5126238 
C     2.9375797   -0.2679715   -2.6288090 
C     4.3998322    0.0574359   -2.3998961 
O     5.1772574   -1.1153783   -2.1241149 
C     4.5800113   -2.0236683   -1.1902240 
C     2.3970314   -0.2855988   -3.9229892 
C     1.0744384   -0.6883929   -4.1331956 
C     0.2998041   -1.1187966   -3.0502864 
C     0.8142394   -1.1035832   -1.7381287 
C     0.7467407   -2.7568335    0.6811031 
C     1.6264942   -3.6895671    0.0925642 
C     2.3919286   -4.5378578    0.9019334 
C     2.2902630   -4.4577217    2.3002193 
C     1.4216797   -3.5277594    2.8901140 
C     0.6509961   -2.6786661    2.0833365 
C    -1.5360006   -2.7264609   -1.1500153 
C    -1.4283646   -4.1302390   -1.1940711 
C    -2.4100115   -4.8890219   -1.8465106 
C    -3.5036580   -4.2583649   -2.4563115 
C    -3.6256911   -2.8616600   -2.4016824 
C    -2.6544287   -2.1003952   -1.7418687 
H     0.2059034    1.0991881    3.4545087 
H     0.2812477    2.6441318    5.4055533 
H     1.0549316    5.0065073    5.1047009 
H     1.7422256    5.8091961    2.8380738 
H     1.6744517    4.2747122    0.8898370 
H     3.3337888    2.7297885   -0.2701563 
H     3.8976773    3.8995968   -2.3982007 
H     2.1959861    4.0736690   -4.2214808 
H    -0.0801664    3.0885157   -3.9066814 
H    -0.6522334    1.9291534   -1.7654168 
H     2.6873639    0.8948109    2.9477533 
H     4.6784790   -0.5378337    3.2744237 
H     5.5757342   -1.8806914    1.3602691 
H     4.8497776    0.5033885   -3.3001464 
H     4.4992904    0.7850224   -1.5684432 
H     3.7955449   -2.6254301   -1.6948862 
H     5.3893260   -2.7041673   -0.8835016 
H     3.0257739    0.0088582   -4.7700352 
H     0.6520361   -0.7011544   -5.1429912 
H    -0.7123258   -1.4894963   -3.2339423 
H     1.7202987   -3.7392062   -0.9979605 
H     3.0749352   -5.2589222    0.4407819 
H     2.8942349   -5.1183654    2.9307737 
H     1.3482590   -3.4588576    3.9802764 
H    -0.0178344   -1.9381590    2.5382312 
H    -0.5870899   -4.6371580   -0.7134121 
H    -2.3187110   -5.9797642   -1.8746681 
H    -4.2690473   -4.8551406   -2.9627930 
H    -4.4895335   -2.3658422   -2.8546588 
H    -2.7644232   -1.0109938   -1.6742139 
