100
Energy =
C    -3.3475707   -0.2964366    1.3081802 
C    -2.9926760    1.0735870    1.5091996 
C    -2.9305947    1.9738462    0.4209160 
H    -2.6283063    1.3929959    2.4944480 
Pd   -1.5177745    0.2022579    0.1410392 
P     0.3422545    1.3490127   -0.7483018 
P    -0.4035677   -1.8194494   -0.1380264 
H    -4.0538890   -0.5163238    0.4933784 
H    -3.5092765    1.7095089   -0.4782560 
C    -3.1784368   -3.2526162    4.4351810 
C    -4.1751360   -3.3142256    3.4515485 
C    -4.2261115   -2.3479145    2.4390791 
C    -3.2853769   -1.2972773    2.3923980 
C    -2.2893551   -1.2436497    3.3958477 
C    -2.2361698   -2.2101842    4.4046344 
H    -3.1332736   -4.0119830    5.2223696 
H    -4.9136452   -4.1221693    3.4684049 
H    -5.0066901   -2.4043244    1.6723070 
H    -1.5321013   -0.4516808    3.3657775 
H    -1.4534674   -2.1565598    5.1690078 
C    -1.8537735    6.1319125    0.5839358 
C    -1.3758347    5.2552483    1.5725831 
C    -1.7127745    3.8992715    1.5342003 
C    -2.5292834    3.3876771    0.4990295 
C    -2.9899425    4.2784294   -0.4965082 
C    -2.6630071    5.6382022   -0.4496519 
H    -1.5925038    7.1946072    0.6190973 
H    -0.7373855    5.6315546    2.3785313 
H    -1.3271837    3.2323539    2.3102097 
H    -3.6143908    3.8968173   -1.3111401 
H    -3.0353680    6.3125377   -1.2272070 
C     0.9566398   -3.1757109   -2.2247075 
C     1.1567968   -3.5285707   -3.5644202 
C     0.3636761   -2.9555025   -4.5722714 
C    -0.6321628   -2.0263113   -4.2395187 
C    -0.8282005   -1.6624776   -2.8999819 
C    -0.0309026   -2.2294899   -1.8888864 
C    -1.0975014   -3.4235910    0.4297035 
C    -2.4503507   -3.6662056    0.1229894 
C    -3.0204939   -4.9182873    0.3840789 
C    -2.2468998   -5.9342537    0.9630566 
C    -0.8970950   -5.6996084    1.2665879 
C    -0.3171309   -4.4533011    0.9945172 
C     1.1544891   -1.5537122    0.8048236 
C     1.0934174   -1.8481211    2.1858263 
C     2.1907181   -1.6121357    3.0188742 
C     3.3775448   -1.1046146    2.4753049 
C     2.3245918   -0.9510829    0.2692554 
C     3.4543077   -0.7746083    1.1150839 
C     2.4653523   -0.5095596   -1.1545971 
C     3.5464739   -1.0457745   -1.8989031 
C     4.5241355   -1.9684829   -1.1989036 
O     5.3924439   -1.2674566   -0.3002832 
C     4.7473957   -0.2731857    0.5037709 
C     3.7228480   -0.6852818   -3.2434473 
C     2.8409066    0.2087697   -3.8588914 
C     1.8095521    0.7947943   -3.1144587 
C     1.6187545    0.4594888   -1.7607875 
C    -0.1640668    2.7607962   -1.8054421 
C     0.3219848    4.0708542   -1.6451137 
C    -0.0997088    5.0847303   -2.5179513 
C    -1.0017698    4.8022624   -3.5528086 
C    -1.5097190    3.5019380   -3.7015696 
C    -1.1029005    2.4885356   -2.8251218 
C     1.3803973    1.9990804    0.6224089 
C     2.6043379    2.6483190    0.3543267 
C     3.4145469    3.0800979    1.4129553 
C     3.0220786    2.8500205    2.7413323 
C     1.8170516    2.1849820    3.0121162 
C     0.9993250    1.7618924    1.9564421 
H     1.5716453   -3.6303056   -1.4398605 
H     1.9326656   -4.2561629   -3.8241121 
H     0.5212164   -3.2383938   -5.6181680 
H    -1.2559351   -1.5829544   -5.0225480 
H    -1.6038568   -0.9349520   -2.6305668 
H    -3.0537847   -2.8710474   -0.3291320 
H    -4.0735418   -5.0968487    0.1436578 
H    -2.6939419   -6.9110549    1.1744546 
H    -0.2874036   -6.4937954    1.7098187 
H     0.7420668   -4.2898969    1.2166025 
H     0.1777748   -2.2742283    2.6078390 
H     2.1250183   -1.8462971    4.0863282 
H     4.2552559   -0.9545743    3.1130176 
H     3.9674314   -2.7575921   -0.6493398 
H     5.1893068   -2.4623667   -1.9241096 
H     5.4756475   -0.0092503    1.2859389 
H     4.5459942    0.6358358   -0.0995460 
H     4.5584395   -1.1120354   -3.8086652 
H     2.9701588    0.4779327   -4.9119476 
H     1.1628332    1.5369217   -3.5901177 
H     1.0105817    4.3111313   -0.8308510 
H     0.2756663    6.1035795   -2.3791728 
H    -1.3219100    5.5970869   -4.2343159 
H    -2.2281917    3.2782528   -4.4970289 
H    -1.5093156    1.4761405   -2.9342450 
H     2.9319408    2.7978121   -0.6802758 
H     4.3615931    3.5866204    1.1998096 
H     3.6626919    3.1807973    3.5654205 
H     1.5188143    1.9841066    4.0461671 
H     0.0728873    1.2112776    2.1573465 
