100
Energy =
C    -1.6201868   -0.3880244   -2.9999841 
C    -2.6344736    0.3701385   -2.3446261 
C    -3.3388291   -0.1477615   -1.2342335 
H    -2.7567492    1.4316118   -2.5961922 
Pd   -1.0861710   -0.1450723   -0.8448143 
P     1.1167205   -0.9127642   -0.9933781 
P    -0.8638506    0.3886138    1.4189341 
H    -1.7384119   -1.4804397   -3.0184005 
H    -3.3079522   -1.2382385   -1.0772452 
C     1.0043638    1.1488615   -6.0475138 
C     0.4104666    2.0326887   -5.1300469 
C    -0.4468890    1.5470012   -4.1391293 
C    -0.7328594    0.1642561   -4.0418817 
C    -0.1304129   -0.7109359   -4.9722526 
C     0.7283361   -0.2231938   -5.9650553 
H     1.6779502    1.5310058   -6.8213589 
H     0.6233008    3.1053623   -5.1864580 
H    -0.8861145    2.2479987   -3.4202713 
H    -0.3381675   -1.7845324   -4.9104947 
H     1.1850420   -0.9205252   -6.6749805 
C    -6.4564873    1.8517143    0.9408498 
C    -6.0897638    2.3163948   -0.3316370 
C    -5.0687762    1.6804820   -1.0461500 
C    -4.4023460    0.5577136   -0.5035385 
C    -4.7945011    0.0909263    0.7725987 
C    -5.8046985    0.7361046    1.4908399 
H    -7.2530265    2.3529115    1.5001320 
H    -6.6077380    3.1742740   -0.7727434 
H    -4.8110694    2.0396560   -2.0477846 
H    -4.2799818   -0.7728813    1.2089501 
H    -6.0838877    0.3716950    2.4843234 
C    -2.5412371    2.5971468    1.1343449 
C    -3.4599481    3.5683085    1.5480665 
C    -3.9757358    3.5345170    2.8524859 
C    -3.5717965    2.5254131    3.7381133 
C    -2.6432156    1.5568360    3.3322532 
C    -2.1088545    1.5947261    2.0295071 
C    -0.8798098   -0.9946505    2.6175552 
C    -1.4106994   -2.2374557    2.2234722 
C    -1.4477247   -3.3064942    3.1298557 
C    -0.9549723   -3.1388555    4.4323002 
C    -0.4208390   -1.9023943    4.8294629 
C    -0.3791796   -0.8330089    3.9265580 
C     0.7629992    1.2408567    1.6680805 
C     0.7835852    2.6484671    1.7377179 
C     1.9874485    3.3450499    1.8907690 
C     3.1854136    2.6369968    2.0295872 
C     1.9878223    0.5201467    1.7435313 
C     3.1935465    1.2355320    1.9724119 
C     2.0954813   -0.9752277    1.6781197 
C     2.6844381   -1.6280986    2.7918966 
C     3.2514315   -0.7828173    3.9145861 
O     4.4760120   -0.1403005    3.5383802 
C     4.4648591    0.4528619    2.2330521 
C     2.8079348   -3.0256969    2.8075975 
C     2.3765732   -3.7880523    1.7177471 
C     1.8659484   -3.1488885    0.5817824 
C     1.7265063   -1.7479515    0.5428401 
C     1.2650001   -2.1972893   -2.3006448 
C     2.2749696   -2.1850186   -3.2800572 
C     2.3133900   -3.1867467   -4.2627052 
C     1.3474251   -4.2019448   -4.2801413 
C     0.3272739   -4.2125370   -3.3137567 
C     0.2816932   -3.2120260   -2.3352950 
C     2.4030362    0.3464230   -1.3223467 
C     2.0185227    1.6713690   -1.5965359 
C     2.9938133    2.6575584   -1.7957360 
C     4.3541641    2.3239412   -1.7246377 
C     4.7429181    1.0022910   -1.4509006 
C     3.7725635    0.0137888   -1.2442717 
H    -2.1599336    2.6061337    0.1058259 
H    -3.7899565    4.3388882    0.8448159 
H    -4.7029387    4.2874374    3.1730835 
H    -3.9826764    2.4874039    4.7522862 
H    -2.3465485    0.7692807    4.0304319 
H    -1.7793419   -2.3664940    1.1987725 
H    -1.8563042   -4.2727697    2.8169521 
H    -0.9815377   -3.9748655    5.1388497 
H    -0.0296111   -1.7729782    5.8439618 
H     0.0545299    0.1260706    4.2308217 
H    -0.1538274    3.2094065    1.6917269 
H     1.9809492    4.4388135    1.9347051 
H     4.1266259    3.1718336    2.1957739 
H     2.5067619   -0.0235563    4.2325655 
H     3.5018859   -1.4038303    4.7885376 
H     5.3463224    1.1115951    2.2018883 
H     4.5922582   -0.3300801    1.4574666 
H     3.2566861   -3.5143204    3.6791286 
H     2.4698580   -4.8786225    1.7318746 
H     1.5991090   -3.7503744   -0.2909151 
H     3.0212120   -1.3860367   -3.2944739 
H     3.1002445   -3.1638151   -5.0235806 
H     1.3814783   -4.9803830   -5.0491707 
H    -0.4357514   -4.9976527   -3.3265636 
H    -0.5239075   -3.2149597   -1.5901905 
H     0.9543596    1.9258249   -1.6326097 
H     2.6901006    3.6892288   -1.9999996 
H     5.1155393    3.0958625   -1.8777087 
H     5.8049709    0.7430609   -1.3891746 
H     4.0758502   -1.0119182   -1.0065846 
