100
Energy =
C    -2.5792474    1.6425315    1.8961236 
C    -3.2953193    0.5986161    1.2397815 
C    -2.9703591   -0.7578890    1.4811124 
H    -4.0083358    0.8538869    0.4461953 
Pd   -1.1876201    0.4067732    0.6596563 
P    -0.1995488   -1.3872843   -0.5154159 
P     0.8011381    1.6120715    0.4702219 
H    -2.1447397    1.4081438    2.8794792 
H    -2.4522268   -0.9759145    2.4268998 
C    -3.2976627    5.8349164    1.2442916 
C    -3.5159529    4.9198604    0.1987693 
C    -3.2860565    3.5552155    0.3979553 
C    -2.8275802    3.0745821    1.6478206 
C    -2.6001899    4.0066833    2.6837535 
C    -2.8405649    5.3724575    2.4865079 
H    -3.4810550    6.9026987    1.0866300 
H    -3.8640658    5.2761135   -0.7763478 
H    -3.4352809    2.8565148   -0.4330821 
H    -2.2340353    3.6530599    3.6537311 
H    -2.6622563    6.0782819    3.3041372 
C    -4.8547994   -4.2269751   -0.2127616 
C    -5.1038705   -2.9620659   -0.7717390 
C    -4.4801195   -1.8248946   -0.2527457 
C    -3.6010825   -1.9264291    0.8509724 
C    -3.3457325   -3.2085570    1.3912479 
C    -3.9665577   -4.3474189    0.8656945 
H    -5.3492143   -5.1142938   -0.6212428 
H    -5.7862211   -2.8639948   -1.6217714 
H    -4.6817444   -0.8509803   -0.7086927 
H    -2.6596330   -3.3069594    2.2392287 
H    -3.7630935   -5.3292713    1.3052300 
C     2.3865803    3.5100497    1.9269515 
C     2.6615447    4.8108170    2.3709781 
C     1.7471371    5.8482548    2.1334329 
C     0.5559374    5.5841864    1.4422212 
C     0.2700758    4.2857289    1.0006860 
C     1.1794441    3.2373247    1.2488412 
C     1.2796094    1.9781414   -1.2632212 
C     0.2542425    2.1030910   -2.2191338 
C     0.5598700    2.4719685   -3.5366288 
C     1.8913133    2.7144226   -3.9024035 
C     2.9151674    2.6042235   -2.9467319 
C     2.6126933    2.2490499   -1.6270800 
C     1.9522253    0.4053455    1.2653050 
C     1.9948324    0.4569910    2.6779986 
C     2.7906661   -0.4320304    3.4067553 
C     3.5774776   -1.3741007    2.7309433 
C     2.6646271   -0.6199219    0.5895005 
C     3.5178583   -1.4792341    1.3347377 
C     2.5700976   -0.8578744   -0.8820764 
C     3.7719799   -0.8732855   -1.6309661 
C     5.0854075   -0.7086469   -0.8925936 
O     5.4455623   -1.8706613   -0.1365114 
C     4.3695935   -2.4831457    0.5826104 
C     3.7278940   -1.0704589   -3.0197744 
C     2.5028756   -1.2537894   -3.6701260 
C     1.3157316   -1.3078303   -2.9271155 
C     1.3360787   -1.1309174   -1.5312454 
C     0.3478176   -2.7531442    0.5847458 
C     1.0278712   -3.8722315    0.0572777 
C     1.4922364   -4.8785047    0.9145005 
C     1.3022194   -4.7669788    2.3013857 
C     0.6480317   -3.6454235    2.8318796 
C     0.1722011   -2.6424678    1.9767342 
C    -1.4046186   -2.0674461   -1.7207023 
C    -1.7091938   -3.4361287   -1.8333122 
C    -2.6135097   -3.8726401   -2.8123381 
C    -3.2151061   -2.9550815   -3.6847412 
C    -2.9333051   -1.5856219   -3.5613546 
C    -2.0426627   -1.1417132   -2.5764678 
H     3.1195735    2.7164766    2.1012855 
H     3.5998581    5.0138338    2.8976945 
H     1.9674257    6.8629351    2.4808769 
H    -0.1611614    6.3869277    1.2452976 
H    -0.6551129    4.0936167    0.4489246 
H    -0.7844390    1.9174850   -1.9196229 
H    -0.2414663    2.5685903   -4.2764762 
H     2.1339184    2.9970008   -4.9319851 
H     3.9541710    2.7996065   -3.2313951 
H     3.4115418    2.1758838   -0.8809162 
H     1.4086557    1.2141593    3.2100908 
H     2.8124456   -0.3735398    4.4996623 
H     4.2343514   -2.0468030    3.2926157 
H     5.9169654   -0.5467995   -1.5960177 
H     5.0259411    0.1749345   -0.2208943 
H     3.7268872   -3.0635555   -0.1111226 
H     4.8467343   -3.1911132    1.2775931 
H     4.6615570   -1.0750200   -3.5925867 
H     2.4680873   -1.3875424   -4.7559631 
H     0.3720662   -1.5115245   -3.4400962 
H     1.2089581   -3.9464419   -1.0206042 
H     2.0151919   -5.7463036    0.4994569 
H     1.6745632   -5.5510251    2.9688640 
H     0.5186539   -3.5438976    3.9142615 
H    -0.3067028   -1.7488057    2.3898758 
H    -1.2580670   -4.1622720   -1.1520270 
H    -2.8513979   -4.9385409   -2.8864630 
H    -3.9147305   -3.3042835   -4.4510684 
H    -3.4118016   -0.8617347   -4.2291763 
H    -1.8281437   -0.0720420   -2.4746863 
