100
Energy =
C    -3.1030637    0.9884359   -1.4442763 
C    -2.7425472   -0.1482732   -2.2034077 
C    -1.6986068   -0.0812009   -3.1778046 
H    -3.1682396   -1.1259482   -1.9420375 
Pd   -0.9038223    0.4447767   -1.1655561 
P    -0.7221579    0.7995380    1.1591856 
P     1.3683646   -0.0353762   -1.2734418 
H    -2.8491694    1.9727998   -1.8683008 
H    -1.5649246    0.8750713   -3.7054555 
C    -6.1140603    1.1789445    1.6176116 
C    -5.7319192    2.3290794    0.9118929 
C    -4.7384918    2.2521574   -0.0705884 
C    -4.1191101    1.0203726   -0.3798851 
C    -4.5129762   -0.1306032    0.3413338 
C    -5.4962818   -0.0501313    1.3314158 
H    -6.8873521    1.2383360    2.3904637 
H    -6.2032760    3.2920579    1.1320518 
H    -4.4377043    3.1552685   -0.6119900 
H    -4.0401902   -1.0952234    0.1374616 
H    -5.7835006   -0.9511051    1.8832712 
C    -0.1856304   -3.5451566   -5.2415633 
C    -0.6374385   -3.6609522   -3.9157222 
C    -1.1356085   -2.5415150   -3.2424951 
C    -1.1934461   -1.2788663   -3.8785413 
C    -0.7396212   -1.1801719   -5.2109695 
C    -0.2429579   -2.3019861   -5.8864687 
H     0.2089335   -4.4208335   -5.7667723 
H    -0.5941553   -4.6286520   -3.4044485 
H    -1.4581821   -2.6385803   -2.1993870 
H    -0.7794272   -0.2117102   -5.7214239 
H     0.1060230   -2.2029730   -6.9193126 
C     3.1993383   -1.5613577   -2.8734654 
C     3.8759000   -1.8094503   -4.0755519 
C     3.5679978   -1.0699334   -5.2275442 
C     2.5784720   -0.0776751   -5.1779015 
C     1.8879877    0.1637215   -3.9839252 
C     2.1907039   -0.5775343   -2.8251401 
C     2.4588738    1.3664888   -0.8057676 
C     1.9637286    2.6783977   -0.9188007 
C     2.8015478    3.7725381   -0.6614720 
C     4.1356722    3.5579710   -0.2874932 
C     4.6348954    2.2493588   -0.1800471 
C     3.8041415    1.1547728   -0.4464082 
C     1.5455591   -1.4102547   -0.0637390 
C     1.3078819   -2.7088024   -0.5684435 
C     1.3383321   -3.8229025    0.2751075 
C     1.6361568   -3.6561127    1.6334119 
C     1.7529542   -1.2282873    1.3303355 
C     1.8431493   -2.3758697    2.1657297 
C     1.9159094    0.1066822    1.9896105 
C     3.0948462    0.3179926    2.7485571 
C     4.0756030   -0.8272302    2.9015050 
O     3.5965292   -1.8428098    3.7916969 
C     2.2163764   -2.1862496    3.6224126 
C     3.3136119    1.5511010    3.3814485 
C     2.3709052    2.5787729    3.2762720 
C     1.1738789    2.3585922    2.5834492 
C     0.9249943    1.1266224    1.9496735 
C    -1.7761357    2.1899766    1.7269671 
C    -2.6919862    2.0930256    2.7900414 
C    -3.4378816    3.2169086    3.1749044 
C    -3.2756121    4.4397403    2.5094753 
C    -2.3812428    4.5355885    1.4315378 
C    -1.6442292    3.4135043    1.0336150 
C    -1.2386144   -0.7196781    2.0566527 
C    -1.1315119   -0.7985694    3.4616162 
C    -1.4663423   -1.9872494    4.1237953 
C    -1.8888830   -3.1082353    3.3914046 
C    -1.9758377   -3.0410729    1.9929820 
C    -1.6524687   -1.8510516    1.3286421 
H     3.4655706   -2.1294345   -1.9766314 
H     4.6548783   -2.5782738   -4.1079569 
H     4.1029312   -1.2648914   -6.1627054 
H     2.3359600    0.5037047   -6.0733772 
H     1.1132445    0.9379259   -3.9439973 
H     0.9180941    2.8368021   -1.2104861 
H     2.4117325    4.7917157   -0.7515042 
H     4.7910568    4.4108201   -0.0828956 
H     5.6776376    2.0820617    0.1089469 
H     4.1985022    0.1351490   -0.3701823 
H     1.1039839   -2.8454124   -1.6351571 
H     1.1523262   -4.8213247   -0.1336880 
H     1.7023402   -4.5273466    2.2938145 
H     4.2953781   -1.2688782    1.9059243 
H     5.0246589   -0.4788365    3.3375517 
H     2.0736459   -3.1189777    4.1893235 
H     1.5692248   -1.4065623    4.0743992 
H     4.2314186    1.7022870    3.9598797 
H     2.5487600    3.5451943    3.7584549 
H     0.4189092    3.1488971    2.5568880 
H    -2.8432177    1.1416673    3.3067828 
H    -4.1559733    3.1295951    3.9965134 
H    -3.8566949    5.3144538    2.8190853 
H    -2.2626488    5.4832352    0.8959648 
H    -0.9557394    3.4852705    0.1833505 
H    -0.7678658    0.0616435    4.0342759 
H    -1.3847404   -2.0423128    5.2143299 
H    -2.1398786   -4.0381687    3.9120985 
H    -2.2836677   -3.9197599    1.4170456 
H    -1.6844881   -1.7992526    0.2339680 
