100
Energy =
C    -1.6518259    0.0160673   -3.1545021 
C    -2.5253578    0.7924165   -2.3598010 
C    -3.1940556    0.2332653   -1.2313147 
H    -2.5555604    1.8782392   -2.5176372 
Pd   -0.9867176    0.0108561   -0.9687600 
P     1.3481124    0.0422662   -1.0453296 
P    -1.0145081   -0.6344373    1.2782061 
H    -1.7314888   -1.0801784   -3.0731462 
H    -3.4612391   -0.8315475   -1.2798353 
C     0.4923278    1.3634761   -6.6233470 
C     0.8669823    0.1799223   -5.9672809 
C     0.1593390   -0.2507442   -4.8421247 
C    -0.9267484    0.5017731   -4.3381104 
C    -1.2945047    1.6902976   -5.0097073 
C    -0.5940212    2.1120241   -6.1449281 
H     1.0416848    1.6972729   -7.5094997 
H     1.7157766   -0.4059455   -6.3335084 
H     0.4605705   -1.1694871   -4.3257960 
H    -2.1545052    2.2723725   -4.6628683 
H    -0.9016557    3.0255881   -6.6641765 
C    -5.4814720    2.4912839    1.6333045 
C    -5.7294370    1.1257520    1.4347767 
C    -4.9818372    0.4028243    0.4969814 
C    -3.9712644    1.0313502   -0.2635207 
C    -3.7340281    2.4108884   -0.0540100 
C    -4.4805757    3.1313873    0.8822607 
H    -6.0633015    3.0569668    2.3681969 
H    -6.5072211    0.6172764    2.0139037 
H    -5.1774131   -0.6647791    0.3498889 
H    -2.9449226    2.9217499   -0.6174102 
H    -4.2797794    4.1972156    1.0333570 
C    -0.7224739    0.4044016    3.8877612 
C    -0.5901087    1.4430365    4.8178130 
C    -0.6257071    2.7802322    4.3894215 
C    -0.7974393    3.0800745    3.0301977 
C    -0.9368215    2.0451074    2.0959152 
C    -0.9020872    0.7045235    2.5202731 
C    -2.5365128   -1.5963454    1.6517275 
C    -3.3549242   -1.3384747    2.7667459 
C    -4.5164458   -2.0982409    2.9769124 
C    -4.8728378   -3.1138728    2.0794266 
C    -4.0679812   -3.3676038    0.9557403 
C    -2.9116586   -2.6083467    0.7390251 
C     0.3725374   -1.7661716    1.7510033 
C     0.1292960   -3.1364608    1.9671174 
C     1.1589022   -3.9922822    2.3761232 
C     2.4325174   -3.4737911    2.6295219 
C     1.6841401   -1.2494350    1.9371087 
C     2.6993650   -2.1111522    2.4272674 
C     2.0520082    0.1913746    1.7356676 
C     2.5790736    0.8772656    2.8624204 
C     2.8284983    0.0962543    4.1369157 
O     3.9688220   -0.7660021    4.0273079 
C     4.0393989   -1.5138142    2.8066341 
C     2.9298829    2.2318855    2.7661005 
C     2.7924280    2.9151811    1.5536594 
C     2.3442573    2.2308419    0.4184011 
C     1.9762691    0.8720561    0.4882376 
C     2.2132136   -1.5692896   -1.1178010 
C     1.4975725   -2.7144923   -1.5153846 
C     2.1428636   -3.9568827   -1.5915713 
C     3.5045324   -4.0604288   -1.2716171 
C     4.2223287   -2.9219454   -0.8708096 
C     3.5809228   -1.6799198   -0.7899574 
C     2.0374027    1.0446679   -2.4227983 
C     1.3264536    2.2022666   -2.8066961 
C     1.8139680    3.0277308   -3.8260538 
C     3.0039973    2.6934166   -4.4897213 
C     3.7010064    1.5307547   -4.1319616 
C     3.2228640    0.7063123   -3.1040799 
H    -0.6708477   -0.6388381    4.2188385 
H    -0.4501025    1.2088281    5.8782355 
H    -0.5143041    3.5896478    5.1184231 
H    -0.8164419    4.1218412    2.6944944 
H    -1.0535040    2.2690356    1.0306526 
H    -3.1032849   -0.5335222    3.4624825 
H    -5.1492645   -1.8845299    3.8443565 
H    -5.7800054   -3.7031556    2.2476333 
H    -4.3450223   -4.1536299    0.2456855 
H    -2.2925588   -2.7994903   -0.1466412 
H    -0.8786248   -3.5401861    1.8415903 
H     0.9521244   -5.0559754    2.5311243 
H     3.2300876   -4.1271311    2.9993626 
H     3.0510237    0.7725474    4.9765910 
H     1.9275084   -0.4949196    4.4002186 
H     4.4128483   -0.8661495    1.9861177 
H     4.7862800   -2.3022060    2.9878309 
H     3.3240350    2.7472614    3.6484616 
H     3.0648056    3.9727691    1.4788016 
H     2.2997229    2.7583262   -0.5383299 
H     0.4292849   -2.6295929   -1.7482222 
H     1.5802563   -4.8456576   -1.8950366 
H     4.0074012   -5.0313167   -1.3287896 
H     5.2837270   -3.0033802   -0.6142040 
H     4.1365662   -0.7956240   -0.4586502 
H     0.3810769    2.4479908   -2.3073965 
H     1.2527320    3.9207463   -4.1172990 
H     3.3796981    3.3328225   -5.2950166 
H     4.6225208    1.2589642   -4.6570801 
H     3.7713849   -0.2033198   -2.8444901 
