100
Energy =
C    -1.8944788   -1.3739186   -2.5392810 
C    -2.7694746   -0.3063693   -2.2324299 
C    -3.3023398   -0.1411886   -0.9220641 
H    -2.9326488    0.4783497   -2.9803978 
Pd   -1.0441256   -0.0690208   -0.8675775 
P     1.2470054   -0.3705928   -1.0819924 
P    -0.7537584    0.5332445    1.4024273 
H    -1.8924978   -2.2284434   -1.8444440 
H    -3.4135548   -1.0462826   -0.3088059 
C    -0.2131159   -2.3941995   -6.3581880 
C    -0.9565857   -1.2091415   -6.2265345 
C    -1.4922354   -0.8452994   -4.9876407 
C    -1.3064857   -1.6691012   -3.8523344 
C    -0.5516088   -2.8564516   -4.0022438 
C    -0.0079595   -3.2151044   -5.2393002 
H     0.2046375   -2.6748083   -7.3303420 
H    -1.1219878   -0.5672009   -7.0979706 
H    -2.0727981    0.0794932   -4.9087487 
H    -0.4010804   -3.5065083   -3.1329573 
H     0.5757031   -4.1361523   -5.3320746 
C    -5.9095011    3.0549784    0.3002715 
C    -5.2234903    3.1504457   -0.9211797 
C    -4.3533691    2.1323766   -1.3227160 
C    -4.1631197    0.9833626   -0.5189460 
C    -4.8512599    0.9093513    0.7140974 
C    -5.7134490    1.9329470    1.1196542 
H    -6.5899225    3.8534781    0.6132019 
H    -5.3676492    4.0252096   -1.5639496 
H    -3.8225993    2.2334071   -2.2750650 
H    -4.7038322    0.0341628    1.3569383 
H    -6.2351088    1.8551991    2.0787136 
C    -2.0506458    2.9647701    1.0894719 
C    -2.8325679    4.0592485    1.4760936 
C    -3.4625106    4.0631689    2.7297948 
C    -3.3160535    2.9656564    3.5900708 
C    -2.5271200    1.8704855    3.2119386 
C    -1.8739388    1.8713624    1.9640070 
C    -1.0560658   -0.9300121    2.4787359 
C    -1.5525215   -2.1267191    1.9285287 
C    -1.7366373   -3.2565598    2.7373666 
C    -1.4288743   -3.1988790    4.1040506 
C    -0.9272964   -2.0112662    4.6600809 
C    -0.7319898   -0.8834741    3.8526751 
C     0.9145285    1.0782517    2.0113239 
C     1.0860738    2.3919873    2.4867618 
C     2.3063515    2.7999704    3.0397109 
C     3.3570477    1.8846281    3.1626074 
C     2.0058215    0.1674597    2.0686775 
C     3.2154408    0.5726347    2.6857648 
C     1.9201013   -1.2440339    1.5780861 
C     2.1824357   -2.2773071    2.5189052 
C     2.6855903   -1.8930350    3.8964672 
O     4.0342310   -1.4133271    3.8750551 
C     4.3196104   -0.4522449    2.8508602 
C     2.0119358   -3.6203578    2.1556662 
C     1.5794249   -3.9606344    0.8671636 
C     1.3900714   -2.9560196   -0.0861201 
C     1.5998033   -1.5975223    0.2412718 
C     2.0028600   -1.0027565   -2.6318029 
C     1.6409940   -0.3094020   -3.8058043 
C     2.2682252   -0.6052576   -5.0203098 
C     3.2511750   -1.6054585   -5.0780036 
C     3.6131703   -2.2990599   -3.9144474 
C     2.9991284   -1.9969971   -2.6897807 
C     2.2703729    1.1358357   -0.8428690 
C     1.6689608    2.4016624   -0.9602615 
C     2.4531212    3.5618076   -0.8887216 
C     3.8381385    3.4595510   -0.6970708 
C     4.4419771    2.1961271   -0.5833933 
C     3.6644029    1.0353395   -0.6644110 
H    -1.5788573    2.9503782    0.1000228 
H    -2.9667943    4.9004457    0.7892387 
H    -4.0815284    4.9152614    3.0284506 
H    -3.8216612    2.9571423    4.5611964 
H    -2.4312345    1.0165023    3.8879746 
H    -1.7627775   -2.1800460    0.8549155 
H    -2.1121091   -4.1854145    2.2960852 
H    -1.5718891   -4.0813942    4.7361343 
H    -0.6758439   -1.9658248    5.7248386 
H    -0.3060695    0.0284592    4.2848871 
H     0.2543051    3.1005314    2.4423655 
H     2.4226643    3.8274844    3.3985340 
H     4.2995648    2.1871368    3.6315143 
H     2.0149728   -1.1267236    4.3367502 
H     2.6946090   -2.7648869    4.5684973 
H     5.2628257    0.0281839    3.1540869 
H     4.4926889   -0.9708802    1.8836378 
H     2.2079294   -4.4045407    2.8946864 
H     1.4130488   -5.0084347    0.5975659 
H     1.0855916   -3.2262206   -1.1026793 
H     0.8718109    0.4699208   -3.7618193 
H     1.9808973   -0.0616303   -5.9252476 
H     3.7374981   -1.8414945   -6.0300824 
H     4.3873738   -3.0725040   -3.9535725 
H     3.3116773   -2.5266290   -1.7845494 
H     0.5838506    2.4725722   -1.1031527 
H     1.9808732    4.5453483   -0.9802736 
H     4.4512859    4.3648551   -0.6393062 
H     5.5241842    2.1160926   -0.4372584 
H     4.1390321    0.0504645   -0.5897018 
