100
Energy =
C    -1.6642417    0.0492474   -3.1478348 
C    -2.5212295    0.8386486   -2.3479891 
C    -3.1946648    0.2885304   -1.2178971 
H    -2.5338990    1.9251247   -2.5036235 
Pd   -0.9907230    0.0290210   -0.9647986 
P     1.3440973    0.0196915   -1.0515046 
P    -1.0194671   -0.6181242    1.2817688 
H    -1.7623093   -1.0456306   -3.0681811 
H    -3.4799892   -0.7715345   -1.2674133 
C     0.4879200    1.3673800   -6.6229306 
C     0.8450264    0.1761125   -5.9710368 
C     0.1349022   -0.2448515   -4.8437706 
C    -0.9361764    0.5248887   -4.3336791 
C    -1.2866677    1.7207913   -5.0014082 
C    -0.5836133    2.1331987   -6.1384609 
H     1.0392879    1.6937996   -7.5105788 
H     1.6819249   -0.4235103   -6.3423318 
H     0.4227462   -1.1695393   -4.3304290 
H    -2.1357063    2.3161711   -4.6501851 
H    -0.8775302    3.0532150   -6.6542448 
C    -5.4338172    2.5790757    1.6591036 
C    -5.7063168    1.2186346    1.4578834 
C    -4.9740876    0.4850207    0.5162614 
C    -3.9550588    1.0976711   -0.2458630 
C    -3.6933409    2.4723890   -0.0339499 
C    -4.4242137    3.2034520    0.9064836 
H    -6.0032989    3.1529667    2.3972956 
H    -6.4915733    0.7225200    2.0376456 
H    -5.1884941   -0.5787080    0.3675109 
H    -2.8973868    2.9709328   -0.5987681 
H    -4.2042335    4.2651841    1.0596737 
C    -0.6965796    0.4134203    3.8905491 
C    -0.5417960    1.4487530    4.8208194 
C    -0.5558235    2.7867467    4.3936453 
C    -0.7282148    3.0907052    3.0354207 
C    -0.8900742    2.0591560    2.1009680 
C    -0.8771344    0.7178061    2.5241052 
C    -2.5566774   -1.5527875    1.6621076 
C    -3.3651439   -1.2806110    2.7809744 
C    -4.5390583   -2.0195385    2.9964842 
C    -4.9176466   -3.0285187    2.1006063 
C    -4.1226775   -3.2963708    0.9731492 
C    -2.9540246   -2.5578248    0.7510745 
C     0.3493556   -1.7749263    1.7473997 
C     0.0825501   -3.1407864    1.9637273 
C     1.0984477   -4.0152492    2.3675741 
C     2.3823310   -3.5199204    2.6153728 
C     1.6708778   -1.2819482    1.9278841 
C     2.6727476   -2.1621635    2.4126467 
C     2.0634047    0.1523487    1.7264698 
C     2.6075954    0.8273210    2.8517130 
C     2.8490650    0.0403908    4.1241100 
O     3.9733649   -0.8418500    4.0082328 
C     4.0249486   -1.5892222    2.7863475 
C     2.9815502    2.1757386    2.7555616 
C     2.8505327    2.8630300    1.5446690 
C     2.3850044    2.1883030    0.4106511 
C     1.9938044    0.8360135    0.4803435 
C     2.1801959   -1.6066847   -1.1303673 
C     1.4427032   -2.7381466   -1.5273676 
C     2.0652815   -3.9917876   -1.6078379 
C     3.4259526   -4.1202973   -1.2927162 
C     4.1655569   -2.9955154   -0.8928946 
C     3.5468980   -1.7422995   -0.8078617 
C     2.0448023    1.0123499   -2.4302964 
C     3.2217134    0.6551598   -3.1167284 
C     3.7099728    1.4734222   -4.1447840 
C     3.0316882    2.6486528   -4.4974374 
C     1.8500717    3.0019010   -3.8285813 
C     1.3522652    2.1826689   -2.8091936 
H    -0.6618131   -0.6308504    4.2205725 
H    -0.4011360    1.2112067    5.8804088 
H    -0.4270253    3.5934699    5.1227577 
H    -0.7301290    4.1329291    2.7006074 
H    -1.0074712    2.2859969    1.0364188 
H    -3.0959031   -0.4805041    3.4757423 
H    -5.1638493   -1.7947569    3.8669317 
H    -5.8343929   -3.6015490    2.2729621 
H    -4.4170770   -4.0771720    0.2643147 
H    -2.3424344   -2.7599858   -0.1373631 
H    -0.9329468   -3.5263979    1.8423100 
H     0.8732435   -5.0751198    2.5230192 
H     3.1696433   -4.1876980    2.9814193 
H     3.0874641    0.7116315    4.9634690 
H     1.9389639   -0.5350048    4.3909755 
H     4.4059853   -0.9471828    1.9648859 
H     4.7585739   -2.3909493    2.9630548 
H     3.3886400    2.6829506    3.6367812 
H     3.1414884    3.9156541    1.4698158 
H     2.3447422    2.7180887   -0.5449999 
H     0.3753030   -2.6336299   -1.7562929 
H     1.4858267   -4.8698036   -1.9108884 
H     3.9109956   -5.1000392   -1.3527953 
H     5.2262684   -3.0964247   -0.6403882 
H     4.1195700   -0.8685600   -0.4775877 
H     3.7555916   -0.2642021   -2.8608953 
H     4.6246513    1.1869911   -4.6740529 
H     3.4153207    3.2833197   -5.3027385 
H     1.3032564    3.9051232   -4.1157492 
H     0.4129529    2.4432612   -2.3059841 
