100
Energy =
C    -1.2654776    0.2949039   -3.1512738 
C    -2.5271147    0.2068683   -2.5160258 
C    -2.9239536   -0.9938114   -1.8565181 
H    -3.1478900    1.1053753   -2.4129058 
Pd   -1.0651460   -0.1760555   -0.9259633 
P     0.9732661    0.9650864   -0.5812646 
P    -0.7773948   -1.2776603    1.1115595 
H    -0.7958516   -0.6570076   -3.4411671 
H    -2.4994854   -1.9356343   -2.2353475 
C     0.3456494    3.6543436   -5.2899911 
C     0.9686689    2.3994128   -5.3503383 
C     0.4412707    1.3212059   -4.6306678 
C    -0.7194022    1.4747956   -3.8368052 
C    -1.3216345    2.7529704   -3.7668063 
C    -0.7977536    3.8263122   -4.4915025 
H     0.7498402    4.4980770   -5.8586984 
H     1.8623259    2.2566914   -5.9665050 
H     0.9261260    0.3409440   -4.6888307 
H    -2.2080219    2.9111207   -3.1452876 
H    -1.2807534    4.8065090   -4.4308541 
C    -6.6458737   -1.4586934    0.2530872 
C    -6.0436528   -2.5531776   -0.3837002 
C    -4.8274238   -2.3921988   -1.0597764 
C    -4.1976520   -1.1302017   -1.1259117 
C    -4.8153634   -0.0342695   -0.4772317 
C    -6.0241105   -0.1980279    0.2060936 
H    -7.5933553   -1.5838702    0.7871407 
H    -6.5180704   -3.5391686   -0.3480481 
H    -4.3571058   -3.2533778   -1.5467167 
H    -4.3278618    0.9473386   -0.4828417 
H    -6.4848716    0.6583374    0.7094213 
C    -0.1309716   -0.4976686    3.7698615 
C    -0.2101123    0.3669994    4.8677532 
C    -0.9255150    1.5720945    4.7695679 
C    -1.5671208    1.9123213    3.5703983 
C    -1.4788876    1.0555450    2.4643262 
C    -0.7508238   -0.1454942    2.5555701 
C    -1.8261244   -2.6299786    1.7920589 
C    -3.2119307   -2.3831427    1.8701084 
C    -4.0566537   -3.3070607    2.4992748 
C    -3.5288601   -4.4811833    3.0554036 
C    -2.1482644   -4.7242074    2.9932113 
C    -1.2952501   -3.8027493    2.3704179 
C     0.8732740   -2.0482451    0.8032698 
C     0.8412719   -3.2712412    0.0939363 
C     2.0226659   -3.9376105   -0.2451022 
C     3.2580553   -3.4019532    0.1422166 
C     2.1279899   -1.4539572    1.0992680 
C     3.3213769   -2.1684009    0.8042124 
C     2.2747757   -0.0996610    1.7115215 
C     3.0392172    0.0136089    2.8982811 
C     3.7130385   -1.2291289    3.4451307 
O     4.8394230   -1.6395767    2.6614108 
C     4.6462778   -1.5769095    1.2440977 
C     3.1829183    1.2632640    3.5205656 
C     2.5761781    2.3996361    2.9748051 
C     1.8755536    2.3077072    1.7644895 
C     1.7333201    1.0690943    1.1121211 
C     2.3700927    0.2501037   -1.5366044 
C     3.6776160    0.7622997   -1.3917121 
C     4.7431692    0.1692659   -2.0816050 
C     4.5180646   -0.9483299   -2.9015234 
C     3.2244696   -1.4749897   -3.0299414 
C     2.1544607   -0.8777715   -2.3503075 
C     0.7788668    2.7223437   -1.0728910 
C    -0.3343309    3.4127205   -0.5431453 
C    -0.5234381    4.7714568   -0.8232717 
C     0.3826921    5.4475935   -1.6550473 
C     1.4668860    4.7563756   -2.2133415 
C     1.6702564    3.3990090   -1.9249696 
H     0.4169748   -1.4426469    3.8532122 
H     0.2854126    0.0986441    5.8064567 
H    -0.9873159    2.2420576    5.6333365 
H    -2.1356349    2.8450334    3.4946595 
H    -1.9825924    1.3075855    1.5231863 
H    -3.6318501   -1.4624211    1.4543962 
H    -5.1307445   -3.1036408    2.5485472 
H    -4.1908799   -5.2037332    3.5437909 
H    -1.7284324   -5.6321717    3.4386482 
H    -0.2186101   -3.9971136    2.3476462 
H    -0.1229240   -3.7131306   -0.1802242 
H     1.9761474   -4.8851001   -0.7913685 
H     4.1857516   -3.9382077   -0.0842109 
H     4.1086762   -1.0515634    4.4572399 
H     2.9735695   -2.0568321    3.5051369 
H     4.7135888   -0.5258301    0.8946752 
H     5.4889211   -2.1352657    0.8081857 
H     3.7707110    1.3414504    4.4415716 
H     2.6720403    3.3700685    3.4720385 
H     1.4579978    3.2138178    1.3176030 
H     3.8634456    1.6124304   -0.7262922 
H     5.7545624    0.5733195   -1.9690128 
H     5.3548919   -1.4146625   -3.4317897 
H     3.0488889   -2.3599692   -3.6500442 
H     1.1498192   -1.3073953   -2.4201668 
H    -1.0451413    2.8825242    0.1005360 
H    -1.3812276    5.3013355   -0.3962138 
H     0.2349219    6.5090972   -1.8788058 
H     2.1605233    5.2725398   -2.8846940 
H     2.5129549    2.8704635   -2.3781824 
