105
Energy =
C    -2.5788365   -0.7260021   -1.9138864 
C    -1.9449756    0.3192373   -2.6462713 
C    -0.6910685    0.1534696   -3.2739389 
H    -2.4105549    1.3132598   -2.6324183 
Pd   -0.6230991   -0.2076218   -0.9569822 
P     1.6094419    0.5981877   -0.6922226 
P    -1.1506862   -1.0247038    1.2232584 
H    -2.3433226   -1.7632092   -2.1957680 
H    -0.3481019   -0.8762942   -3.4513217 
C    -6.4513830   -0.1382196   -0.1305528 
C    -6.1561703   -1.3257963   -0.8159499 
C    -4.8845132   -1.5223388   -1.3703628 
C    -3.8962428   -0.5192045   -1.2774084 
C    -4.2113225    0.6793104   -0.5964746 
C    -5.4711494    0.8636309   -0.0186606 
H    -7.4399385    0.0081034    0.3167150 
H    -6.9144320   -2.1102400   -0.9073949 
H    -4.6524412   -2.4615274   -1.8835628 
H    -3.4483581    1.4572308   -0.4893654 
H    -5.6885156    1.7884488    0.5256061 
C     1.3600390    3.0802571   -5.6723033 
C     1.8087061    1.7531014   -5.6172027 
C     1.1326472    0.8151182   -4.8295016 
C    -0.0049561    1.1813632   -4.0729988 
C    -0.4574247    2.5206429   -4.1592738 
C     0.2184292    3.4569885   -4.9448441 
H     1.8878064    3.8168858   -6.2866973 
H     2.6887915    1.4434665   -6.1897265 
H     1.4889224   -0.2188640   -4.7952026 
H    -1.3515343    2.8383017   -3.6139327 
H    -0.1478123    4.4874702   -4.9944846 
C    -2.7819544    0.0891040    3.3048042 
C    -3.3893354    1.1609821    3.9712831 
C    -3.1916874    2.4780346    3.5251640 
C    -2.3906233    2.7207905    2.4003185 
C    -1.7884856    1.6483543    1.7286753 
C    -1.9639356    0.3232313    2.1785540 
C    -2.3159750   -2.4564998    1.3267494 
C    -3.7094971   -2.2644313    1.4333575 
C    -4.5717592   -3.3683995    1.5048846 
C    -4.0640203   -4.6721371    1.4443597 
C    -2.6808308   -4.8708633    1.3123623 
C    -1.8111204   -3.7749826    1.2587415 
C     0.3457222   -1.7206158    2.0731476 
C     1.2223909   -2.3112650    1.1395639 
C     2.4654455   -2.8557332    1.4980565 
C     0.7105148   -1.7050476    3.4486690 
C     1.8050059   -2.5220614    3.8102164 
C     2.6759407   -3.0818532    2.8692247 
C     0.2365659   -0.7036650    4.4877504 
C     0.8960953    0.7527925    4.3255443 
C     2.0201741    0.7488415    3.3132408 
C     1.7199650    0.9381358    1.9595329 
C     2.4940571    0.3770323    0.9208258 
C     3.6640469   -0.3592550    1.2438191 
C     4.1108082   -0.2519533    2.5838276 
C     3.3115289    0.2668014    3.6055978 
C     4.3198591   -1.4323722    0.3896942 
C     3.5918497   -2.8631509    0.4887608 
C     2.6753236   -0.0470713   -2.0442236 
C     3.7081287    0.7016480   -2.6401439 
C     4.5058439    0.1267228   -3.6397326 
C     4.2822719   -1.1952563   -4.0539163 
C     3.2383042   -1.9398940   -3.4819124 
C     2.4316673   -1.3632999   -2.4923635 
C     1.6357825    2.4374200   -0.7931915 
C     2.7911208    3.1750076   -0.4538474 
C     2.7717871    4.5742672   -0.5091542 
C     1.5979915    5.2513113   -0.8791894 
C     0.4391742    4.5256165   -1.1879185 
C     0.4595646    3.1246199   -1.1435010 
H    -2.9500722   -0.9323545    3.6603409 
H    -4.0208861    0.9663248    4.8441696 
H    -3.6680284    3.3116551    4.0515011 
H    -2.2350541    3.7426458    2.0393764 
H    -1.1828119    1.8367143    0.8337653 
H    -4.1325687   -1.2565651    1.4644960 
H    -5.6488728   -3.1973074    1.5987013 
H    -4.7409467   -5.5308343    1.5011233 
H    -2.2718620   -5.8855188    1.2659681 
H    -0.7340430   -3.9515579    1.1844453 
H     0.9840167   -2.2054536    0.0724435 
H     2.0628341   -2.5972711    4.8730048 
H     3.5928955   -3.5745772    3.2116984 
H     0.5104560   -1.0943790    5.4810901 
H    -0.8536409   -0.5775662    4.4866916 
H     1.2476824    1.0781579    5.3187951 
H     0.1062097    1.4529046    4.0049917 
H     0.7676402    1.4155682    1.7024894 
H     5.0629774   -0.7258845    2.8495108 
H     3.6446595    0.1797062    4.6459941 
H     5.3575131   -1.5586081    0.7388358 
H     4.3731425   -1.1478104   -0.6697698 
H     4.3501648   -3.6186748    0.7523413 
H     3.2068869   -3.1208006   -0.5118209 
H     3.8854742    1.7370146   -2.3370431 
H     5.3038644    0.7181468   -4.1002343 
H     4.9114680   -1.6407070   -4.8313119 
H     3.0467448   -2.9657658   -3.8129736 
H     1.6014491   -1.9374861   -2.0642732 
H     3.6958683    2.6551067   -0.1208729 
H     3.6722704    5.1398539   -0.2482877 
H     1.5855517    6.3456657   -0.9129305 
H    -0.4823567    5.0487207   -1.4643283 
H    -0.4442767    2.5495788   -1.3724293 
