105
Energy =
C    -2.8191441    0.0570553   -1.7795417 
C    -2.1768630    1.2675253   -2.1252216 
C    -1.0026182    1.2683272   -2.9332420 
H    -2.5279276    2.2185776   -1.7050773 
Pd   -0.6340943    0.2164403   -0.9693897 
P     1.7491093    0.3783229   -0.8827295 
P    -1.1443405   -0.9890614    1.0264335 
H    -2.5729622   -0.8156695   -2.4015197 
H    -0.8649340    0.4084347   -3.6069431 
C    -6.4859738   -0.4177250    0.4129794 
C    -5.8781841   -1.5151998   -0.2138127 
C    -4.6818786   -1.3442493   -0.9181227 
C    -4.0605286   -0.0759912   -1.0052342 
C    -4.6891481    1.0207576   -0.3695776 
C    -5.8877960    0.8504976    0.3274970 
H    -7.4244852   -0.5461534    0.9619535 
H    -6.3404303   -2.5062202   -0.1613190 
H    -4.2226002   -2.2038661   -1.4146437 
H    -4.2416600    2.0171461   -0.4220076 
H    -6.3585808    1.7120346    0.8110934 
C     0.6613129    4.9765958   -4.3280597 
C     0.3812538    4.8115966   -2.9612881 
C    -0.1364382    3.6011860   -2.4915487 
C    -0.3761405    2.5284487   -3.3793033 
C    -0.0639439    2.6974915   -4.7463941 
C     0.4363954    3.9167470   -5.2187296 
H     1.0646386    5.9262478   -4.6941371 
H     0.5807843    5.6270553   -2.2588874 
H    -0.3281504    3.4646089   -1.4205786 
H    -0.2382739    1.8711033   -5.4447481 
H     0.6566077    4.0381294   -6.2844495 
C    -3.5150571   -0.7222958    2.6245240 
C    -4.4366502    0.0438312    3.3517280 
C    -4.3399326    1.4434547    3.3713301 
C    -3.3450224    2.0845014    2.6185709 
C    -2.4363141    1.3233257    1.8733266 
C    -2.4854073   -0.0875994    1.9042027 
C    -1.7235655   -2.7117972    0.7097930 
C    -1.9343005   -3.6081075    1.7807234 
C    -2.3275344   -4.9284735    1.5287119 
C    -2.4850062   -5.3798770    0.2083136 
C    -2.2401518   -4.5076986   -0.8616540 
C    -1.8611906   -3.1810185   -0.6098663 
C     0.2016710   -1.3777258    2.2430449 
C     1.2142343   -2.1144658    1.5915559 
C     2.4487996   -2.3952112    2.1872166 
C     0.4029614   -0.9505829    3.5819819 
C     1.5094911   -1.5273699    4.2531305 
C     2.5239547   -2.2152574    3.5827412 
C    -0.2704334    0.2275697    4.2676752 
C     0.3965450    1.6463605    3.9058181 
C     1.6104873    1.4905128    3.0172682 
C     1.4362500    1.2751521    1.6410067 
C     2.3584936    0.5503584    0.8590451 
C     3.5462511    0.0562744    1.4675716 
C     3.8360910    0.5525451    2.7578015 
C     2.8954532    1.2429146    3.5303487 
C     4.3603970   -1.1336741    0.9919449 
C     3.6717373   -2.5512198    1.3106889 
C     2.4511074   -1.0781053   -1.7712271 
C     3.7551542   -1.0827336   -2.3128516 
C     4.2342668   -2.2127701   -2.9877172 
C     3.4189905   -3.3463848   -3.1419176 
C     2.1123056   -3.3405719   -2.6338128 
C     1.6311319   -2.2090651   -1.9604924 
C     2.5794662    1.8033030   -1.7004962 
C     2.6838753    1.8303059   -3.1081803 
C     3.3183008    2.9004337   -3.7482472 
C     3.8349250    3.9669359   -2.9968900 
C     3.7159582    3.9568281   -1.6003801 
C     3.0924421    2.8822784   -0.9511700 
H    -3.6048838   -1.8116420    2.6181977 
H    -5.2351412   -0.4585767    3.9071245 
H    -5.0545545    2.0343102    3.9534635 
H    -3.2836966    3.1776328    2.6014173 
H    -1.6774285    1.8238945    1.2601762 
H    -1.7640332   -3.2795716    2.8115750 
H    -2.4952655   -5.6131627    2.3664602 
H    -2.7816657   -6.4159582    0.0152786 
H    -2.3402217   -4.8590723   -1.8940232 
H    -1.6624287   -2.5025978   -1.4457526 
H     1.0882981   -2.3495467    0.5287151 
H     1.6431512   -1.2986582    5.3169960 
H     3.4312746   -2.5004476    4.1271856 
H    -0.1820714    0.0837789    5.3568071 
H    -1.3434849    0.2854697    4.0407185 
H     0.6635744    2.1527374    4.8479641 
H    -0.3677933    2.2640844    3.4062789 
H     0.4778092    1.5497975    1.1807906 
H     4.7829587    0.2566502    3.2241659 
H     3.1203365    1.4636876    4.5799539 
H     5.3354973   -1.1041214    1.5043562 
H     4.5659020   -1.0970069   -0.0855029 
H     4.4279613   -3.1979251    1.7859265 
H     3.3890590   -3.0169206    0.3514957 
H     4.3944363   -0.1996549   -2.2122899 
H     5.2492007   -2.2070336   -3.3983903 
H     3.7994582   -4.2266324   -3.6702673 
H     1.4627696   -4.2124597   -2.7626296 
H     0.6023735   -2.1968008   -1.5816667 
H     2.2806015    1.0060451   -3.7052533 
H     3.3978393    2.9063882   -4.8395562 
H     4.3277761    4.8043669   -3.5012387 
H     4.1186439    4.7844772   -1.0072787 
H     3.0205668    2.8793947    0.1401908 
