105
Energy =
C     0.2094461   -2.0599098   -2.5638455 
C     1.0905226   -1.0158393   -2.9751214 
C     2.3194049   -0.7966627   -2.3121528 
H     0.7582465   -0.3037258   -3.7405434 
Pd    0.4974578   -0.5959305   -0.8849882 
P     1.3902432    1.1510590    0.4667421 
P    -1.4674643   -1.2474022    0.2516967 
H     0.6824191   -2.9377725   -2.1042766 
H     2.6965230   -1.6121781   -1.6758197 
C    -3.6358582   -2.8981935   -4.3027885 
C    -2.9498740   -3.8811337   -3.5748886 
C    -1.7036424   -3.5923434   -3.0063230 
C    -1.1165435   -2.3148703   -3.1549038 
C    -1.8312590   -1.3278840   -3.8733414 
C    -3.0719487   -1.6196813   -4.4463630 
H    -4.6090236   -3.1226412   -4.7513479 
H    -3.3826437   -4.8796024   -3.4542361 
H    -1.1707390   -4.3669879   -2.4455563 
H    -1.4198264   -0.3184010   -3.9753076 
H    -3.6092338   -0.8426448   -4.9989511 
C     5.3239836    2.1258853   -3.2702303 
C     4.1355600    2.0845879   -4.0184761 
C     3.1489101    1.1413011   -3.7221708 
C     3.3245433    0.2166769   -2.6648887 
C     4.5370423    0.2557863   -1.9373045 
C     5.5230923    1.2029359   -2.2333240 
H     6.0947024    2.8673212   -3.5045653 
H     3.9804288    2.7914543   -4.8399200 
H     2.2367601    1.1210882   -4.3268801 
H     4.7005699   -0.4626431   -1.1273352 
H     6.4502384    1.2177785   -1.6515410 
C     4.1549432    1.5906421    1.1102282 
C     5.4170657    1.1439548    1.5270664 
C     5.6215686   -0.2055519    1.8519443 
C     4.5598781   -1.1184776    1.7453017 
C     3.2995087   -0.6763850    1.3236130 
C     3.0794450    0.6857341    1.0208622 
C     1.5160133    2.7141097   -0.5020603 
C     1.1083483    2.7252098   -1.8478941 
C     1.1298764    3.9160597   -2.5878224 
C     1.5579282    5.1065289   -1.9855434 
C     1.9412410    5.1101050   -0.6339955 
C     1.9070007    3.9250860    0.1106912 
C     0.3974147    1.8087317    1.8871294 
C    -0.8916437    2.1520319    1.4296248 
C    -1.9198410    2.5480686    2.2925596 
C     0.6995961    1.9174693    3.2696289 
C    -0.2431242    2.6235659    4.0542913 
C    -1.5303784    2.9186194    3.5952267 
C     1.7675686    1.1284023    4.0054403 
C     1.2671666   -0.3317700    4.4652252 
C    -0.1466179   -0.6208187    4.0100487 
C    -0.3827107   -0.9874879    2.6797811 
C    -1.6002674   -0.7139853    2.0223777 
C    -2.6578761   -0.0922728    2.7348405 
C    -2.5033897   -0.0283819    4.1396307 
C    -1.2788761   -0.2669729    4.7706087 
C    -3.7678126    0.7354049    2.1128379 
C    -3.3601131    2.2811908    1.9117899 
C    -2.9198686   -0.7174907   -0.7421892 
C    -2.8574276    0.5686536   -1.3259275 
C    -3.9362092    1.0729484   -2.0610111 
C    -5.0794310    0.2831564   -2.2567667 
C    -5.1222080   -1.0183485   -1.7370323 
C    -4.0511094   -1.5206666   -0.9847015 
C    -1.6046076   -3.0623501    0.5596430 
C    -2.7331101   -3.5894834    1.2258462 
C    -2.8032241   -4.9562467    1.5221105 
C    -1.7357696   -5.8069605    1.1924353 
C    -0.5882160   -5.2812015    0.5831241 
C    -0.5231150   -3.9150947    0.2717575 
H     4.0192342    2.6400692    0.8371147 
H     6.2473636    1.8549759    1.5893026 
H     6.6094603   -0.5486408    2.1759688 
H     4.7160849   -2.1760456    1.9817937 
H     2.4782461   -1.3952361    1.2151198 
H     0.7606058    1.7934373   -2.3074370 
H     0.8123605    3.9115467   -3.6357823 
H     1.5776956    6.0371779   -2.5620730 
H     2.2507554    6.0439821   -0.1534979 
H     2.1525347    3.9471733    1.1779256 
H    -1.1345113    1.9644577    0.3773233 
H    -0.0026801    2.8124962    5.1071753 
H    -2.2702974    3.3247794    4.2941341 
H     2.0597089    1.6860443    4.9103235 
H     2.6741101    1.0043679    3.3983349 
H     1.3415834   -0.3954305    5.5632367 
H     1.9651644   -1.0753337    4.0438278 
H     0.4557552   -1.3725122    2.0843649 
H    -3.3357977    0.3642844    4.7354359 
H    -1.1753031   -0.0534575    5.8404868 
H    -4.6517139    0.7024503    2.7710024 
H    -4.0765099    0.3323428    1.1386870 
H    -4.0394224    2.9033014    2.5172584 
H    -3.5333477    2.5365616    0.8525752 
H    -1.9496096    1.1720936   -1.2151607 
H    -3.8768867    2.0772506   -2.4931425 
H    -5.9240847    0.6719598   -2.8347297 
H    -5.9932895   -1.6550743   -1.9217655 
H    -4.0972778   -2.5435768   -0.6049065 
H    -3.5461873   -2.9269582    1.5408271 
H    -3.6876045   -5.3557067    2.0291667 
H    -1.7908714   -6.8738760    1.4319037 
H     0.2615778   -5.9325128    0.3536820 
H     0.3835005   -3.5015445   -0.1802448 
