105
Energy =
C     0.1452132   -1.8136147   -2.7973823 
C     0.6346873   -0.5463903   -3.1860359 
C     1.9114111   -0.0876906   -2.7475515 
H    -0.0000955    0.1370041   -3.7643987 
Pd    0.5073241   -0.3589104   -1.0019484 
P     1.5932327    1.0471170    0.5957568 
P    -1.3522014   -1.2050546    0.2327382 
H     0.8934097   -2.5280232   -2.4246400 
H     2.6519149   -0.8598054   -2.4869144 
C    -3.5069623   -3.6979164   -4.0574100 
C    -2.5554278   -4.4068909   -3.3100218 
C    -1.3749998   -3.7767826   -2.9027717 
C    -1.1217112   -2.4222852   -3.2243392 
C    -2.0911600   -1.7231169   -3.9817200 
C    -3.2665267   -2.3554461   -4.3943070 
H    -4.4301558   -4.1886513   -4.3823720 
H    -2.7282867   -5.4561992   -3.0500292 
H    -0.6330962   -4.3423325   -2.3316995 
H    -1.9258612   -0.6773834   -4.2556111 
H    -4.0029282   -1.7973883   -4.9808270 
C     3.5412391    3.5704207   -4.3065827 
C     2.2439078    3.5619578   -3.7676325 
C     1.7122803    2.3839296   -3.2353142 
C     2.4719293    1.1927575   -3.2234476 
C     3.7847900    1.2211332   -3.7432820 
C     4.3090396    2.3967731   -4.2938332 
H     3.9550203    4.4936300   -4.7248685 
H     1.6514245    4.4822058   -3.7511176 
H     0.7103976    2.3855634   -2.7896011 
H     4.3876550    0.3059763   -3.7340918 
H     5.3222618    2.3983706   -4.7090014 
C     2.7150633   -1.3710950    1.4718279 
C     3.6440729   -2.1887607    2.1303202 
C     4.7298486   -1.6096272    2.8021636 
C     4.8905691   -0.2140473    2.7987881 
C     3.9615286    0.6038340    2.1431632 
C     2.8481125    0.0321987    1.4893490 
C     2.5735722    2.4866291   -0.0001267 
C     3.8339330    2.2661579   -0.5969051 
C     4.5982859    3.3463894   -1.0509431 
C     4.1076164    4.6560857   -0.9370473 
C     2.8485268    4.8806779   -0.3636938 
C     2.0819259    3.8042744    0.1040262 
C     0.3723175    1.8751405    1.7174684 
C    -0.8279718    2.1513548    1.0314635 
C    -1.9517713    2.7100540    1.6605682 
C     0.4803666    2.2215707    3.0936376 
C    -0.5387405    3.0542602    3.6065115 
C    -1.7366358    3.2905002    2.9226716 
C     1.4074189    1.5701999    4.1043490 
C     0.9257007    0.1079536    4.5682186 
C    -0.4503250   -0.2237640    4.0346631 
C    -0.5709500   -0.7686356    2.7515793 
C    -1.7036891   -0.5589383    1.9358487 
C    -2.8024086    0.1811290    2.4466332 
C    -2.7821812    0.4310580    3.8411649 
C    -1.6370083    0.2578097    4.6224673 
C    -3.8392035    0.9399647    1.6337961 
C    -3.3340682    2.3855226    1.1396405 
C    -2.8583467   -0.9873390   -0.7999125 
C    -2.9424177    0.1932740   -1.5702000 
C    -4.1069134    0.4955600   -2.2865136 
C    -5.1864976   -0.3998649   -2.2735626 
C    -5.0836024   -1.6065451   -1.5650604 
C    -3.9276809   -1.9025425   -0.8292461 
C    -1.1995959   -2.9950373    0.6516389 
C    -2.1446421   -3.6194784    1.4952556 
C    -1.9965864   -4.9676908    1.8442996 
C    -0.8903709   -5.7001229    1.3840562 
C     0.0734060   -5.0771759    0.5787577 
C    -0.0822910   -3.7313923    0.2157769 
H     1.8776978   -1.8252507    0.9292079 
H     3.5186122   -3.2762580    2.1126067 
H     5.4592744   -2.2435600    3.3167955 
H     5.7467719    0.2407870    3.3074871 
H     4.1051959    1.6891915    2.1344887 
H     4.2250414    1.2482876   -0.6946924 
H     5.5756899    3.1624978   -1.5071036 
H     4.7067543    5.4987557   -1.2968765 
H     2.4602154    5.9001109   -0.2695124 
H     1.1077269    3.9946510    0.5632482 
H    -0.9296047    1.7761902    0.0043340 
H    -0.4461316    3.4067714    4.6403416 
H    -2.5533331    3.8122066    3.4343901 
H     1.4456969    2.2167882    4.9958873 
H     2.4359351    1.4804966    3.7321782 
H     0.9488282    0.0755689    5.6702102 
H     1.6594476   -0.6270611    4.1965579 
H     0.3080867   -1.2520229    2.3108299 
H    -3.6575679    0.9143327    4.2906515 
H    -1.6331920    0.6151226    5.6584636 
H    -4.7252398    1.0943733    2.2707061 
H    -4.1747464    0.3748945    0.7538758 
H    -4.0651666    3.1398775    1.4739726 
H    -3.3393252    2.3888938    0.0371880 
H    -2.0865130    0.8780932   -1.6039137 
H    -4.1663887    1.4240458   -2.8638696 
H    -6.0980221   -0.1694495   -2.8345325 
H    -5.9091297   -2.3253469   -1.5832157 
H    -3.8623674   -2.8479497   -0.2845432 
H    -2.9823212   -3.0422160    1.9009342 
H    -2.7393947   -5.4443740    2.4922154 
H    -0.7724143   -6.7508953    1.6681153 
H     0.9495145   -5.6366390    0.2341858 
H     0.6742769   -3.2434124   -0.4072487 
