105
Energy =
C    -2.7757315   -0.2185321   -1.7918692 
C    -2.0492041    0.8049587   -2.4467335 
C    -0.8301877    0.5313657   -3.1226232 
H    -2.3741327    1.8461440   -2.3361277 
Pd   -0.6652394    0.0349180   -0.8960422 
P     1.6550836    0.4515092   -0.8020948 
P    -1.1825750   -0.9086648    1.2195358 
H    -2.5538994   -1.2554977   -2.0837752 
H    -0.6768755   -0.5050856   -3.4554438 
C    -6.5106945    0.1888039    0.2991800 
C    -5.9216678   -1.0707219    0.1148114 
C    -4.7151735   -1.1863759   -0.5839393 
C    -4.0579551   -0.0423573   -1.0928747 
C    -4.6754744    1.2187191   -0.9174366 
C    -5.8885363    1.3306689   -0.2327929 
H    -7.4564868    0.2813872    0.8426671 
H    -6.4067570   -1.9692612    0.5098201 
H    -4.2694953   -2.1733652   -0.7407135 
H    -4.2062142    2.1234340   -1.3177657 
H    -6.3534650    2.3144433   -0.1103026 
C     1.5292565    3.3858082   -5.3132070 
C     1.7689355    2.0101077   -5.4397517 
C     0.9978263    1.0945973   -4.7145392 
C    -0.0237012    1.5327014   -3.8403021 
C    -0.2463187    2.9246064   -3.7179948 
C     0.5166271    3.8372887   -4.4503417 
H     2.1264664    4.1048271   -5.8833753 
H     2.5521247    1.6462108   -6.1127800 
H     1.1822437    0.0224020   -4.8313789 
H    -1.0185040    3.3021082   -3.0414718 
H     0.3264864    4.9095846   -4.3421830 
C    -2.8788958    1.2335574    1.7819306 
C    -3.7913993    1.9739737    2.5465581 
C    -4.2294688    1.4828709    3.7835987 
C    -3.7443031    0.2546942    4.2631491 
C    -2.8307955   -0.4860229    3.5045923 
C    -2.4009918   -0.0054078    2.2466004 
C    -1.9540631   -2.5458829    0.8061776 
C    -2.9841962   -3.1391032    1.5607518 
C    -3.5397716   -4.3637592    1.1624356 
C    -3.0772262   -5.0134706    0.0088599 
C    -2.0520202   -4.4308127   -0.7515550 
C    -1.4993526   -3.2054482   -0.3568551 
C     0.1968326   -1.4184330    2.3439664 
C     1.0728040   -2.3306783    1.7201378 
C     2.2536070   -2.7658381    2.3338682 
C     0.5160603   -0.9174925    3.6386739 
C     1.4972677   -1.6385927    4.3533045 
C     2.3641638   -2.5336660    3.7186149 
C     0.1535095    0.4731285    4.1544261 
C     1.4242982    1.4194055    4.2509714 
C     2.4064180    1.1066403    3.1388953 
C     1.9715602    1.1261411    1.8088331 
C     2.5468409    0.3068441    0.8163772 
C     3.6029146   -0.5810507    1.1745348 
C     4.2364144   -0.3183960    2.4089829 
C     3.6508060    0.4951019    3.3843554 
C     3.8669471   -1.9404076    0.5323424 
C     3.4518983   -3.1423537    1.4851242 
C     2.6843479   -0.4378449   -2.0316088 
C     4.0640771   -0.1749139   -2.1803229 
C     4.8263553   -0.9137978   -3.0938501 
C     4.2304998   -1.9359285   -3.8500599 
C     2.8686930   -2.2267201   -3.6829595 
C     2.1007943   -1.4802230   -2.7783935 
C     1.7929769    2.2670577   -1.1523799 
C     2.8050201    2.8508062   -1.9360642 
C     2.8589005    4.2425268   -2.0983546 
C     1.9090862    5.0695143   -1.4833533 
C     0.8745332    4.4952034   -0.7307884 
C     0.8088700    3.1048000   -0.5792501 
H    -2.5272387    1.6153702    0.8172562 
H    -4.1621956    2.9329896    2.1714168 
H    -4.9421078    2.0601571    4.3817117 
H    -4.0709106   -0.1216399    5.2381142 
H    -2.4176266   -1.4152815    3.9098695 
H    -3.3852604   -2.6382682    2.4442274 
H    -4.3460458   -4.8069952    1.7560726 
H    -3.5175752   -5.9669334   -0.3001326 
H    -1.6874611   -4.9260168   -1.6575777 
H    -0.7162963   -2.7407540   -0.9705643 
H     0.9050579   -2.5882418    0.6668317 
H     1.7046179   -1.3532816    5.3915840 
H     3.2196246   -2.9359644    4.2730769 
H    -0.3250148    0.4290359    5.1492339 
H    -0.5709201    0.9496618    3.4803490 
H     1.9211088    1.2840368    5.2265782 
H     1.0640476    2.4637126    4.2145712 
H     1.0577525    1.6819270    1.5698700 
H     5.1180099   -0.9116473    2.6799513 
H     4.0903167    0.5315644    4.3876449 
H     4.9313378   -2.0626407    0.2628568 
H     3.2943486   -2.0401828   -0.3980847 
H     4.2962622   -3.4076455    2.1436388 
H     3.2547679   -4.0199997    0.8429390 
H     4.5522488    0.5776857   -1.5534759 
H     5.8945711   -0.7007889   -3.2052004 
H     4.8322282   -2.5151942   -4.5579419 
H     2.4040567   -3.0365902   -4.2548607 
H     1.0402301   -1.7138015   -2.6347838 
H     3.5423229    2.2296715   -2.4482134 
H     3.6486697    4.6790861   -2.7181743 
H     1.9625867    6.1560132   -1.6072825 
H     0.1093485    5.1283807   -0.2695446 
H    -0.0256360    2.6598209   -0.0223784 
