105
Energy =
C     0.4864942   -2.3599050   -2.2414053 
C     1.3249462   -1.3120689   -2.7205675 
C     2.4949286   -0.9066253   -2.0421066 
H     0.9872948   -0.7419312   -3.5957799 
Pd    0.5494116   -0.6953173   -0.7466319 
P     1.3226415    1.2074490    0.4728657 
P    -1.5220099   -1.2024419    0.3257228 
H     0.9500788   -3.1420564   -1.6214909 
H     2.9183458   -1.6044093   -1.3050065 
C    -2.9915468   -3.5930731   -4.4561032 
C    -2.7157367   -2.2238373   -4.2942055 
C    -1.5878687   -1.8159734   -3.5754269 
C    -0.7246263   -2.7668709   -2.9836730 
C    -1.0213297   -4.1375589   -3.1410367 
C    -2.1360248   -4.5464570   -3.8848940 
H    -3.8709177   -3.9127736   -5.0246516 
H    -3.3851685   -1.4725538   -4.7257569 
H    -1.3904607   -0.7476035   -3.4399680 
H    -0.3699204   -4.8864056   -2.6782195 
H    -2.3447121   -5.6144146   -4.0057059 
C     5.2793331    2.1037975   -3.3505313 
C     5.5793160    1.2700805   -2.2638913 
C     4.6614592    0.2991213   -1.8489199 
C     3.4187859    0.1411276   -2.5057309 
C     3.1427345    0.9766180   -3.6156361 
C     4.0589039    1.9464250   -4.0290071 
H     5.9951213    2.8652663   -3.6768185 
H     6.5322472    1.3732610   -1.7352171 
H     4.9062067   -0.3486420   -1.0017188 
H     2.2056768    0.8671972   -4.1703551 
H     3.8233006    2.5829156   -4.8880181 
C     4.0246719    2.0036678    0.9990954 
C     5.3363071    1.7461999    1.4228127 
C     5.7146341    0.4534814    1.8164630 
C     4.7814216   -0.5943573    1.7642790 
C     3.4737906   -0.3420690    1.3296716 
C     3.0766359    0.9631453    0.9671803 
C     1.2482234    2.7144327   -0.5838432 
C     1.4409133    4.0029418   -0.0391020 
C     1.3473031    5.1333313   -0.8605242 
C     1.0395038    4.9932604   -2.2239190 
C     0.8176210    3.7189652   -2.7640895 
C     0.9205407    2.5854872   -1.9456782 
C     0.3698055    1.8246887    1.9370569 
C    -0.9625984    2.0870017    1.5508031 
C    -1.9760471    2.3680751    2.4741037 
C     0.7265780    1.9073573    3.3086132 
C    -0.2326564    2.5070547    4.1612004 
C    -1.5582870    2.7180526    3.7735741 
C     1.8906833    1.1986509    3.9823754 
C     1.5902576   -0.3441627    4.3238603 
C     0.1663941   -0.7301245    3.9904428 
C    -0.1765067   -1.0158217    2.6597381 
C    -1.4699801   -0.8052798    2.1383917 
C    -2.4908730   -0.3174009    3.0017122 
C    -2.1962384   -0.3339777    4.3833944 
C    -0.9021991   -0.5243433    4.8800114 
C    -3.7207508    0.4666901    2.5778947 
C    -3.4010637    1.9809663    2.1455923 
C    -2.8753467   -0.3300463   -0.5675477 
C    -2.5237583    0.7574395   -1.3941131 
C    -3.5009394    1.4592733   -2.1126806 
C    -4.8451335    1.0701194   -2.0248874 
C    -5.2050207   -0.0235900   -1.2204649 
C    -4.2297214   -0.7212792   -0.4964503 
C    -2.0376441   -2.9773265    0.3660912 
C    -2.8303360   -3.5372432   -0.6576922 
C    -3.2028780   -4.8884886   -0.6042901 
C    -2.7706777   -5.7039360    0.4490242 
C    -1.9599638   -5.1602139    1.4577173 
C    -1.5989393   -3.8079617    1.4222760 
H     3.7481425    3.0127829    0.6819220 
H     6.0676501    2.5607790    1.4402633 
H     6.7389612    0.2592790    2.1506246 
H     5.0746185   -1.6090783    2.0526382 
H     2.7529415   -1.1658327    1.2660584 
H     1.6372287    4.1220269    1.0319798 
H     1.5009158    6.1292019   -0.4322559 
H     0.9602083    5.8805613   -2.8605645 
H     0.5648560    3.6050536   -3.8235031 
H     0.7371658    1.5868485   -2.3567902 
H    -1.2463040    1.9203311    0.5054363 
H     0.0428300    2.6771293    5.2085914 
H    -2.2932575    3.0368832    4.5213883 
H     2.1025728    1.7177786    4.9312040 
H     2.8099594    1.2442818    3.3829127 
H     1.8009082   -0.5082818    5.3933980 
H     2.2987473   -0.9651496    3.7510780 
H     0.6259874   -1.2734288    1.9549243 
H    -2.9882586   -0.0414150    5.0824588 
H    -0.7084546   -0.3729932    5.9479269 
H    -4.4136066    0.4944557    3.4343235 
H    -4.2603186   -0.0091514    1.7491654 
H    -4.1260425    2.6387909    2.6533708 
H    -3.5720989    2.0708533    1.0595657 
H    -1.4691863    1.0459468   -1.4829994 
H    -3.2076776    2.3055761   -2.7422981 
H    -5.6125251    1.6123975   -2.5869420 
H    -6.2523607   -0.3360141   -1.1559352 
H    -4.5244943   -1.5754096    0.1213472 
H    -3.1642916   -2.9266399   -1.5012374 
H    -3.8279480   -5.3002325   -1.4029827 
H    -3.0637573   -6.7582248    0.4864874 
H    -1.6177687   -5.7873643    2.2874922 
H    -0.9899726   -3.3967410    2.2327440 
