105
Energy =
C    -2.5659439   -0.7314569   -1.9295114 
C    -1.9297256    0.3148339   -2.6583339 
C    -0.6717763    0.1513106   -3.2784453 
H    -2.3973431    1.3079405   -2.6475840 
Pd   -0.6171438   -0.2089168   -0.9606988 
P     1.6127414    0.6002887   -0.6823424 
P    -1.1567298   -1.0261095    1.2166730 
H    -2.3265842   -1.7682656   -2.2095897 
H    -0.3256414   -0.8778296   -3.4532391 
C    -6.4504359   -0.1514117   -0.1696513 
C    -5.4729780    0.8525074   -0.0520206 
C    -4.2093394    0.6707998   -0.6223084 
C    -3.8876335   -0.5271951   -1.3011077 
C    -4.8731675   -1.5325030   -1.3996400 
C    -6.1485747   -1.3385236   -0.8529669 
H    -7.4420390   -0.0070095    0.2714682 
H    -5.6954776    1.7768407    0.4910071 
H    -3.4487438    1.4504466   -0.5108401 
H    -4.6360214   -2.4713418   -1.9111729 
H    -6.9045595   -2.1246688   -0.9486542 
C     1.3871595    3.0809455   -5.6667375 
C     1.8389628    1.7550319   -5.6072576 
C     1.1603332    0.8161167   -4.8228737 
C     0.0168845    1.1801545   -4.0741201 
C    -0.4385276    2.5181652   -4.1647993 
C     0.2399214    3.4554603   -4.9470155 
H     1.9168246    3.8182579   -6.2786849 
H     2.7234742    1.4470883   -6.1738614 
H     1.5191007   -0.2168861   -4.7851648 
H    -1.3369383    2.8340948   -3.6255165 
H    -0.1287252    4.4849178   -5.0001648 
C    -2.8021700    0.0878420    3.2870614 
C    -3.4150791    1.1596688    3.9485463 
C    -3.2160014    2.4765281    3.5024688 
C    -2.4080650    2.7191002    2.3824882 
C    -1.8005139    1.6466841    1.7156857 
C    -1.9773335    0.3217570    2.1657358 
C    -2.3204866   -2.4594196    1.3152891 
C    -1.8133368   -3.7773132    1.2529644 
C    -2.6818273   -4.8743413    1.3030609 
C    -4.0661069   -4.6773617    1.4260155 
C    -4.5760717   -3.3742325    1.4810338 
C    -3.7149465   -2.2691684    1.4128506 
C     0.3357327   -1.7191322    2.0757443 
C     1.2187796   -2.3091055    1.1477593 
C     2.4604260   -2.8515914    1.5140161 
C     0.6922214   -1.7023024    3.4534249 
C     1.7857773   -2.5174360    3.8220317 
C     2.6631546   -3.0764462    2.8865615 
C     0.2102270   -0.7012425    4.4890943 
C     0.8697018    0.7557083    4.3310871 
C     1.9997019    0.7527827    3.3253408 
C     1.7071490    0.9410670    1.9698123 
C     2.4882010    0.3807636    0.9358779 
C     3.6574948   -0.3534463    1.2660147 
C     4.0963632   -0.2445742    2.6085279 
C     3.2902060    0.2731412    3.6254303 
C     4.3197046   -1.4262122    0.4163607 
C     3.5928482   -2.8578917    0.5114771 
C     2.6877033   -0.0434773   -2.0277894 
C     2.4487056   -1.3599764   -2.4776595 
C     3.2624615   -1.9353464   -3.4621011 
C     4.3091011   -1.1892331   -4.0272590 
C     4.5280977    0.1330783   -3.6116289 
C     3.7232463    0.7067600   -2.6170635 
C     1.6372746    2.4395022   -0.7837451 
C     2.7888421    3.1788141   -0.4353605 
C     2.7681805    4.5780177   -0.4918598 
C     1.5966701    5.2532832   -0.8722801 
C     0.4414109    4.5258675   -1.1901885 
C     0.4631765    3.1249307   -1.1444920 
H    -2.9712975   -0.9334667    3.6425675 
H    -4.0520923    0.9651463    4.8174949 
H    -3.6965965    3.3101279    4.0249740 
H    -2.2512401    3.7408026    2.0216387 
H    -1.1897080    1.8348363    0.8241900 
H    -0.7355425   -3.9524812    1.1860286 
H    -2.2711208   -5.8884944    1.2610749 
H    -4.7421714   -5.5369307    1.4799401 
H    -5.6539843   -3.2045124    1.5680072 
H    -4.1396149   -1.2618376    1.4396138 
H     0.9866274   -2.2043071    0.0791631 
H     2.0372071   -2.5918614    4.8864165 
H     3.5789136   -3.5673717    3.2347817 
H     0.4775554   -1.0915691    5.4843788 
H    -0.8800609   -0.5760606    4.4803931 
H     1.2152694    1.0811199    5.3264376 
H     0.0812231    1.4553552    4.0060404 
H     0.7556413    1.4169866    1.7069680 
H     5.0479450   -0.7164574    2.8799248 
H     3.6174996    0.1872474    4.6677882 
H     5.3553875   -1.5510729    0.7718018 
H     4.3790491   -1.1419980   -0.6428848 
H     4.3504985   -3.6124073    0.7798438 
H     3.2142004   -3.1162925   -0.4913202 
H     1.6164717   -1.9353011   -2.0550305 
H     3.0744995   -2.9614770   -3.7944397 
H     4.9442358   -1.6339118   -4.8002660 
H     5.3280793    0.7257252   -4.0671523 
H     3.8971646    1.7423384   -2.3126606 
H     3.6915044    2.6602759   -0.0946719 
H     3.6657741    5.1449466   -0.2240110 
H     1.5831658    6.3475995   -0.9071044 
H    -0.4784486    5.0475853   -1.4746813 
H    -0.4380084    2.5485893   -1.3804242 
