105
Energy =
C     0.4663504   -2.3595175   -2.2455483 
C     1.3069576   -1.3147377   -2.7275025 
C     2.4814972   -0.9144790   -2.0537809 
H     0.9678975   -0.7425373   -3.6008299 
Pd    0.5433883   -0.6960466   -0.7495938 
P     1.3292631    1.2023276    0.4671574 
P    -1.5245506   -1.1961564    0.3316063 
H     0.9294559   -3.1438451   -1.6280292 
H     2.9053782   -1.6146730   -1.3192331 
C    -3.0262547   -3.5773986   -4.4457307 
C    -2.1719724   -4.5345277   -3.8789253 
C    -1.0525626   -4.1305035   -3.1395006 
C    -0.7496848   -2.7610906   -2.9826482 
C    -1.6117644   -1.8064167   -3.5700005 
C    -2.7444956   -2.2093625   -4.2839125 
H    -3.9092310   -3.8932582   -5.0108401 
H    -2.3851573   -5.6015864   -3.9998684 
H    -0.4024530   -4.8821965   -2.6794611 
H    -1.4093112   -0.7389220   -3.4351164 
H    -3.4131648   -1.4551574   -4.7115494 
C     5.2726728    2.0848265   -3.3736177 
C     5.5743664    1.2488837   -2.2891560 
C     4.6543677    0.2815152   -1.8705124 
C     3.4076656    0.1296685   -2.5211052 
C     3.1296729    0.9675048   -3.6287624 
C     4.0480943    1.9335375   -4.0459875 
H     5.9902567    2.8432915   -3.7029650 
H     6.5302219    1.3476452   -1.7649206 
H     4.9006581   -0.3683200   -1.0253448 
H     2.1893108    0.8628127   -4.1787810 
H     3.8109663    2.5718331   -4.9032458 
C     3.4789277   -0.3553127    1.3130322 
C     4.7876637   -0.6124687    1.7414602 
C     5.7247866    0.4320587    1.7900010 
C     5.3492222    1.7263197    1.3987628 
C     4.0365165    1.9886808    0.9813631 
C     3.0846811    0.9515183    0.9531993 
C     1.2551688    2.7105543   -0.5878832 
C     1.4554104    3.9977680   -0.0427867 
C     1.3623353    5.1293429   -0.8626627 
C     1.0470547    4.9918608   -2.2246184 
C     0.8177308    3.7189581   -2.7649865 
C     0.9204724    2.5842276   -1.9482540 
C     0.3855479    1.8216232    1.9364740 
C    -0.9477579    2.0890086    1.5568499 
C    -1.9558377    2.3722292    2.4853770 
C     0.7491754    1.9011532    3.3064148 
C    -0.2040261    2.5028795    4.1643849 
C    -1.5307683    2.7188756    3.7833807 
C     1.9139656    1.1876665    3.9739477 
C     1.6097953   -0.3543970    4.3156714 
C     0.1829887   -0.7350941    3.9889411 
C    -0.1674231   -1.0177873    2.6595199 
C    -1.4626141   -0.8019636    2.1447018 
C    -2.4776228   -0.3116433    3.0136474 
C    -2.1763217   -0.3313397    4.3938684 
C    -0.8805090   -0.5267259    4.8839684 
C    -3.7068380    0.4774751    2.5971705 
C    -3.3837393    1.9904612    2.1632314 
C    -2.8792553   -0.3179527   -0.5538171 
C    -2.5280108    0.7683894   -1.3820005 
C    -3.5065516    1.4749440   -2.0940986 
C    -4.8518636    1.0916229   -1.9981900 
C    -5.2115195   -0.0012228   -1.1924679 
C    -4.2348330   -0.7035114   -0.4747714 
C    -2.0461896   -2.9694008    0.3718657 
C    -2.8473170   -3.5246680   -0.6478614 
C    -3.2248658   -4.8745340   -0.5941042 
C    -2.7889698   -5.6933617    0.4550618 
C    -1.9695157   -5.1544417    1.4592773 
C    -1.6039755   -3.8033901    1.4239378 
H     2.7549641   -1.1765537    1.2521952 
H     5.0786043   -1.6284199    2.0277848 
H     6.7498956    0.2341043    2.1195563 
H     6.0835556    2.5382737    1.4130830 
H     3.7621313    2.9989907    0.6661250 
H     1.6571863    4.1150761    1.0274762 
H     1.5225903    6.1241318   -0.4343004 
H     0.9673487    5.8801593   -2.8598314 
H     0.5592950    3.6070696   -3.8232527 
H     0.7320643    1.5866714   -2.3597244 
H    -1.2370135    1.9248529    0.5125987 
H     0.0771201    2.6709224    5.2106074 
H    -2.2611447    3.0388901    4.5351854 
H     2.1321854    1.7052299    4.9221982 
H     2.8306022    1.2305504    3.3702534 
H     1.8251527   -0.5201601    5.3840211 
H     2.3133444   -0.9773295    3.7389071 
H     0.6307990   -1.2771835    1.9505137 
H    -2.9639995   -0.0373769    5.0972557 
H    -0.6810616   -0.3769755    5.9510623 
H    -4.3943754    0.5077775    3.4577968 
H    -4.2534689    0.0040695    1.7716576 
H    -4.1041323    2.6508982    2.6741623 
H    -3.5593013    2.0809250    1.0779664 
H    -1.4727775    1.0524802   -1.4770239 
H    -3.2135121    2.3204897   -2.7248460 
H    -5.6203777    1.6378230   -2.5549004 
H    -6.2597299   -0.3094542   -1.1220740 
H    -4.5295059   -1.5567689    0.1442799 
H    -3.1838243   -2.9115738   -1.4885891 
H    -3.8569477   -5.2824867   -1.3892229 
H    -3.0859749   -6.7465478    0.4928075 
H    -1.6237473   -5.7844387    2.2854145 
H    -0.9889016   -3.3956321    2.2315546 
