105
Energy =
C    -2.7301449   -0.2874419   -1.8224652 
C    -2.0236604    0.7233806   -2.5402093 
C    -0.8327812    0.4213747   -3.2388272 
H    -2.3469988    1.7681174   -2.4542374 
Pd   -0.6689803   -0.0433504   -0.9683475 
P     1.6221145    0.5644903   -0.7251824 
P    -1.2185217   -1.0360002    1.1029700 
H    -2.6330487   -1.3108842   -2.2084069 
H    -0.6310096   -0.6409242   -3.4461859 
C    -6.3074085    0.3424143    0.4844428 
C    -5.9728458   -0.9369613    0.0175847 
C    -4.8011408   -1.1298816   -0.7238643 
C    -3.9400267   -0.0471942   -1.0153713 
C    -4.2803634    1.2328304   -0.5183607 
C    -5.4538995    1.4252563    0.2156064 
H    -7.2249862    0.4964806    1.0614561 
H    -6.6296622   -1.7880956    0.2249027 
H    -4.5502615   -2.1302303   -1.0909466 
H    -3.6156783    2.0846192   -0.6957128 
H    -5.7000864    2.4234622    0.5909256 
C     1.5545172    3.0868009   -5.6224829 
C     1.8808391    1.7268665   -5.5187671 
C     1.0914156    0.8727101   -4.7414112 
C    -0.0372961    1.3609738   -4.0422844 
C    -0.3648555    2.7316524   -4.1750832 
C     0.4232015    3.5829691   -4.9531446 
H     2.1700765    3.7570592   -6.2311812 
H     2.7529591    1.3266994   -6.0455817 
H     1.3518602   -0.1881727   -4.6662701 
H    -1.2481581    3.1388563   -3.6732260 
H     0.1538030    4.6402796   -5.0422013 
C    -2.0610381    1.4684928    1.9625431 
C    -2.8498694    2.3921432    2.6574661 
C    -3.9732768    1.9530686    3.3745170 
C    -4.3140850    0.5930901    3.3674990 
C    -3.5163558   -0.3378601    2.6874714 
C    -2.3599186    0.0873165    2.0051700 
C    -2.0211136   -2.6927660    0.9669787 
C    -2.4049535   -3.3968266    2.1297954 
C    -2.9472802   -4.6838623    2.0288694 
C    -3.0792330   -5.2991661    0.7735522 
C    -2.6477668   -4.6293972   -0.3796594 
C    -2.1187324   -3.3340717   -0.2815727 
C     0.2109674   -1.5713176    2.1549794 
C     1.1365734   -2.2733659    1.3551805 
C     2.3617679   -2.7349245    1.8506465 
C     0.4899369   -1.3609667    3.5300258 
C     1.5675508   -2.1062959    4.0634106 
C     2.4963386   -2.7659415    3.2529806 
C    -0.0680433   -0.2304892    4.3753897 
C     0.8038323    1.1203794    4.2698451 
C     1.9327634    0.9973360    3.2693731 
C     1.6531607    1.0597645    1.8995183 
C     2.4409737    0.4048582    0.9301697 
C     3.6011268   -0.3043616    1.3367138 
C     4.0315981   -0.0752627    2.6653138 
C     3.2184617    0.5403270    3.6215931 
C     4.2358431   -1.4626545    0.5880507 
C     3.5404479   -2.8785870    0.9126507 
C     2.6142236   -0.2812234   -2.0206707 
C     3.6881198    0.3188791   -2.7063652 
C     4.3812350   -0.3976422   -3.6925693 
C     4.0088263   -1.7127991   -4.0090426 
C     2.9250686   -2.3108549   -3.3457360 
C     2.2268403   -1.5954528   -2.3646786 
C     1.8317962    2.3831910   -0.9388795 
C     3.0824673    3.0050532   -0.7294185 
C     3.2035528    4.3951437   -0.8431552 
C     2.0763074    5.1809745   -1.1353848 
C     0.8248884    4.5735413   -1.3033699 
C     0.7039889    3.1801149   -1.2043703 
H    -1.2120971    1.8224312    1.3671554 
H    -2.5949256    3.4565348    2.6261174 
H    -4.5957669    2.6726456    3.9161632 
H    -5.2125087    0.2495043    3.8901347 
H    -3.8101690   -1.3897138    2.6795845 
H    -2.2527661   -2.9516005    3.1186595 
H    -3.2512694   -5.2160591    2.9361527 
H    -3.4965892   -6.3085705    0.6990063 
H    -2.7167464   -5.1162544   -1.3580477 
H    -1.7584232   -2.8226852   -1.1793138 
H     0.9507436   -2.3335810    0.2746294 
H     1.7609116   -2.0395458    5.1405551 
H     3.3954406   -3.1971007    3.7074639 
H    -0.0779581   -0.5438607    5.4323304 
H    -1.1044527    0.0076421    4.1001080 
H     1.2010293    1.3586197    5.2701412 
H     0.1201835    1.9370510    3.9821141 
H     0.7089775    1.5146729    1.5783042 
H     4.9753448   -0.5295130    2.9892924 
H     3.5362671    0.5519190    4.6703221 
H     5.2971987   -1.5329295    0.8774685 
H     4.2096985   -1.3088478   -0.4989540 
H     4.3006013   -3.5489691    1.3461474 
H     3.2170899   -3.3220858   -0.0446076 
H     3.9751775    1.3507930   -2.4897263 
H     5.2120414    0.0797396   -4.2223418 
H     4.5535816   -2.2673707   -4.7799794 
H     2.6184887   -3.3309302   -3.5992095 
H     1.3640127   -2.0539351   -1.8665550 
H     3.9537822    2.4054034   -0.4449024 
H     4.1775172    4.8696889   -0.6850089 
H     2.1735180    6.2687538   -1.2142944 
H    -0.0601469    5.1834536   -1.5126128 
H    -0.2737495    2.6989587   -1.3192652 
