107
Energy =
C    -2.8081656   -2.3800904   -1.4643961 
C    -3.5300882   -1.3663282   -0.7686713 
C    -3.6510156   -0.0652566   -1.3111847 
H    -3.8890628   -1.5678828    0.2494954 
Pd   -1.4683694   -0.6475014   -0.9586193 
P    -0.7039320    1.4863513   -0.2762972 
P     0.6639273   -1.5845302   -0.7278830 
H    -2.7890199   -2.3100320   -2.5628734 
H    -3.5113426    0.0328351   -2.3990504 
C    -2.2323752   -6.3401815    0.1174977 
C    -2.0790842   -5.2228468    0.9554813 
C    -2.2733691   -3.9341386    0.4497720 
C    -2.6125652   -3.7336223   -0.9072815 
C    -2.7619684   -4.8645541   -1.7380287 
C    -2.5823819   -6.1562774   -1.2277514 
H    -2.0758636   -7.3488998    0.5128728 
H    -1.7982058   -5.3597943    2.0051167 
H    -2.1278565   -3.0633925    1.1002302 
H    -3.0232111   -4.7264009   -2.7933899 
H    -2.7063913   -7.0226367   -1.8857661 
C    -5.8112274    3.2227469    0.4247126 
C    -5.6410525    3.1262082   -0.9639689 
C    -4.9206662    2.0583629   -1.5108372 
C    -4.3703069    1.0552683   -0.6821336 
C    -4.5561342    1.1618327    0.7152763 
C    -5.2625147    2.2369357    1.2621266 
H    -6.3676809    4.0618746    0.8549212 
H    -6.0623024    3.8903548   -1.6248758 
H    -4.7800662    1.9956986   -2.5949015 
H    -4.1355650    0.4053474    1.3829688 
H    -5.3861836    2.3066161    2.3478682 
O     2.6081660    1.7406630    2.8002230 
O     4.3570895    0.7117474    0.5925337 
O     1.9525206   -0.0239997    4.9381430 
O     5.1060183    2.6842837   -1.3206918 
C     1.7382307    0.1719517    1.2353627 
C     2.0642623    1.1790455    0.1789728 
C     1.1335314   -1.0827394    0.9730849 
C     1.0688121    1.9190964   -0.5137634 
C     2.0132542    0.5306133    2.5747429 
C     3.4199550    1.4462943   -0.0812820 
C     1.6600627   -0.3311363    3.6397421 
C     3.7994757    2.4295872   -1.0264924 
C     0.7164820   -1.8978602    2.0498653 
C     1.4579333    2.9232368   -1.4231149 
C     0.9838730   -1.5287920    3.3689863 
C     2.8085202    3.1774299   -1.6752524 
C     2.6330742    2.1635831    4.1732039 
C     5.6553267    1.3240030    0.6139607 
C     2.9609163    0.9882859    5.0795016 
C     6.0502141    1.7364367   -0.7960558 
C     0.9556281   -3.3975156   -0.8314509 
C     1.9606788   -0.9834343   -1.8908260 
C    -1.6034564    2.8209926   -1.1634816 
C    -0.9634549    1.7399528    1.5244344 
C     0.3969385   -4.0653105   -1.9385250 
C     1.6148494   -0.1431127   -2.9641903 
C    -2.2025776    3.9227986   -0.5277036 
C    -0.5209985    2.9228326    2.1532855 
C     1.8112451   -4.1015656    0.0414930 
C     3.2913928   -1.4270746   -1.7512742 
C    -1.6779792    2.7093938   -2.5696304 
C    -1.5709407    0.7303615    2.2933458 
C     0.6732717   -5.4192880   -2.1616241 
C     2.5935360    0.2741488   -3.8764713 
C    -2.8347549    4.9149830   -1.2922248 
C    -0.7453282    3.1101923    3.5237106 
C     2.0780440   -5.4592397   -0.1825868 
C     4.2626548   -1.0178709   -2.6721635 
C    -2.2988718    3.7084212   -3.3291149 
C    -1.7642783    0.9081428    3.6695761 
C     1.5077835   -6.1210582   -1.2797470 
C     3.9181987   -0.1626288   -3.7315854 
C    -2.8731217    4.8189185   -2.6897774 
C    -1.3662860    2.1045551    4.2832500 
H     0.1991734   -2.8414517    1.8536130 
H     0.7027701    3.5138183   -1.9474303 
H     0.6955216   -2.1644200    4.2111104 
H     3.1196724    3.9467350   -2.3876488 
H     1.6459279    2.5827832    4.4399655 
H     3.3974114    2.9537124    4.2370860 
H     5.6345923    2.2020369    1.2880855 
H     6.3475178    0.5697759    1.0187535 
H     2.9576595    1.2843985    6.1396266 
H     3.9502314    0.5622414    4.8223252 
H     6.0791994    0.8500564   -1.4559138 
H     7.0309769    2.2368620   -0.8128725 
H    -0.2547613   -3.5185679   -2.6283424 
H     0.5777641    0.1946847   -3.0713860 
H    -2.1998134    4.0024615    0.5625711 
H     0.0066043    3.6876860    1.5736615 
H     2.2776220   -3.5933555    0.8907084 
H     3.5676654   -2.0873084   -0.9233888 
H    -1.2418533    1.8358419   -3.0697729 
H    -1.8624316   -0.2084675    1.8082062 
H     0.2261951   -5.9295478   -3.0204109 
H     2.3205101    0.9401715   -4.7012020 
H    -3.3078265    5.7628514   -0.7865410 
H    -0.4268630    4.0424033    4.0026494 
H     2.7405437   -5.9993057    0.5019692 
H     5.2929766   -1.3741961   -2.5659926 
H    -2.3396526    3.6177622   -4.4196094 
H    -2.2212099    0.1100027    4.2632770 
H     1.7167293   -7.1822954   -1.4497987 
H     4.6816590    0.1586537   -4.4476601 
H    -3.3631584    5.5992913   -3.2810738 
H    -1.5272043    2.2492945    5.3566177 
