107
Energy =
C    -2.5253453   -2.0853572   -2.1480621 
C    -3.4188196   -1.4084374   -1.2876379 
C    -3.5414091    0.0114000   -1.3069654 
H    -3.9028304   -1.9764258   -0.4827084 
Pd   -1.4201318   -0.5485898   -0.8631655 
P    -0.6826644    1.5838421   -0.2363922 
P     0.6297208   -1.5623458   -0.3629575 
H    -2.1521058   -1.5364452   -3.0277092 
H    -3.3761929    0.5195409   -2.2670916 
C    -1.9860255   -6.3417830   -2.3734072 
C    -1.0313182   -5.4709497   -2.9228843 
C    -1.2178192   -4.0880887   -2.8466875 
C    -2.3547425   -3.5453231   -2.2045085 
C    -3.3091868   -4.4339044   -1.6579834 
C    -3.1275296   -5.8182510   -1.7472636 
H    -1.8434309   -7.4252629   -2.4392495 
H    -0.1366577   -5.8731892   -3.4083808 
H    -0.4651692   -3.4108226   -3.2664336 
H    -4.2169859   -4.0415063   -1.1882831 
H    -3.8840594   -6.4926917   -1.3328396 
C    -5.8328774    2.3105464    1.5231477 
C    -5.3673740    1.0330562    1.8788928 
C    -4.6256873    0.2751031    0.9686852 
C    -4.3320969    0.7751507   -0.3223599 
C    -4.8105716    2.0586588   -0.6664422 
C    -5.5528792    2.8178509    0.2465490 
H    -6.4108237    2.9041144    2.2389278 
H    -5.5800313    0.6302653    2.8747728 
H    -4.2543038   -0.7106157    1.2707916 
H    -4.5930289    2.4624096   -1.6610852 
H    -5.9113121    3.8113105   -0.0424238 
O     2.7106683    2.1564195    2.6452755 
O     4.3941353    0.8651948    0.5860722 
O     2.2782714    0.6255323    5.0051189 
O     5.1094946    2.6288222   -1.5321358 
C     1.7994628    0.3958922    1.3264553 
C     2.0906289    1.2641169    0.1426641 
C     1.2440007   -0.9088930    1.2448553 
C     1.0864502    1.9014295   -0.6317193 
C     2.1600331    0.9044753    2.5913585 
C     3.4463329    1.4947743   -0.1741965 
C     1.9511250    0.1495849    3.7697441 
C     3.8031387    2.3476433   -1.2456736 
C     1.0617449   -1.6608550    2.4245022 
C     1.4552573    2.7189286   -1.7198418 
C     1.4079427   -1.1380652    3.6722919 
C     2.8005358    2.9395268   -2.0231298 
C     3.4549995    2.4041713    3.8468821 
C     5.7400288    0.9582324    0.0917395 
C     2.6184435    2.0198996    5.0579085 
C     6.0081805    2.3532871   -0.4479182 
C     0.5035989   -3.3778590   -0.0994846 
C     1.9922514   -1.3217213   -1.5636081 
C    -1.5940972    2.8780086   -1.1744580 
C    -0.8477826    1.9997231    1.5383764 
C    -0.6664849   -3.8626419    0.5237377 
C     1.6883981   -0.8526572   -2.8557935 
C    -2.1717738    4.0075459   -0.5665659 
C    -0.2775960    3.1788291    2.0614387 
C     1.5044732   -4.2899963   -0.4864296 
C     3.3285086   -1.6239897   -1.2261010 
C    -1.7444340    2.6921482   -2.5673134 
C    -1.5424218    1.1186521    2.3878654 
C    -0.8151303   -5.2286015    0.7893133 
C     2.7060857   -0.6934903   -3.8067678 
C    -2.8681728    4.9462625   -1.3438403 
C    -0.4361587    3.4834406    3.4190894 
C     1.3471104   -5.6584449   -0.2267258 
C     4.3363307   -1.4921428   -2.1900800 
C    -2.4349993    3.6337696   -3.3400179 
C    -1.6810801    1.4191580    3.7486561 
C     0.1934022   -6.1293912    0.4155293 
C     4.0289345   -1.0221555   -3.4773685 
C    -2.9980312    4.7661013   -2.7275064 
C    -1.1365074    2.6056071    4.2628214 
H     0.6516227   -2.6725788    2.3719929 
H     0.6914773    3.2201272   -2.3186476 
H     1.2668663   -1.7152354    4.5905842 
H     3.0994546    3.5961631   -2.8451465 
H     3.6906113    3.4795961    3.8488252 
H     4.3965311    1.8221892    3.8198958 
H     6.3968487    0.7148167    0.9415453 
H     5.8860091    0.2122907   -0.7104913 
H     1.6898256    2.6190085    5.0826066 
H     3.1741889    2.1666059    5.9972465 
H     7.0263580    2.4372452   -0.8575526 
H     5.8708921    3.1108013    0.3483094 
H    -1.4667548   -3.1618310    0.7918014 
H     0.6515973   -0.5965306   -3.1048960 
H    -2.0991357    4.1500180    0.5150989 
H     0.3023955    3.8431072    1.4123474 
H     2.4037202   -3.9405312   -1.0008072 
H     3.5770782   -1.9439206   -0.2087368 
H    -1.3162733    1.8026764   -3.0465405 
H    -1.9560501    0.1922115    1.9771445 
H    -1.7285565   -5.5926238    1.2695012 
H     2.4658282   -0.3143529   -4.8052122 
H    -3.3193235    5.8178276   -0.8584874 
H    -0.0026047    4.4051063    3.8217927 
H     2.1303006   -6.3595065   -0.5334592 
H     5.3685355   -1.7575139   -1.9374876 
H    -2.5387816    3.4823388   -4.4194561 
H    -2.2142902    0.7269520    4.4079718 
H     0.0723926   -7.1994930    0.6125401 
H     4.8230630   -0.9085685   -4.2224816 
H    -3.5433514    5.5003841   -3.3292553 
H    -1.2520838    2.8436884    5.3255894 
