107
Energy =
C    -2.8056253   -2.3932607   -1.4198162 
C    -3.5272900   -1.3655009   -0.7433110 
C    -3.6536648   -0.0762151   -1.3108207 
H    -3.8807685   -1.5462791    0.2806130 
Pd   -1.4657404   -0.6518548   -0.9613159 
P    -0.7015718    1.4811499   -0.2778901 
P     0.6684613   -1.5890872   -0.7502062 
H    -2.7974172   -2.3536662   -2.5198427 
H    -3.5143318    0.0017116   -2.4003875 
C    -2.1861876   -6.3001121    0.2755262 
C    -2.0470995   -5.1570815    1.0808479 
C    -2.2557783   -3.8859419    0.5378023 
C    -2.5967563   -3.7287989   -0.8247518 
C    -2.7329566   -4.8850750   -1.6217898 
C    -2.5373855   -6.1592684   -1.0744459 
H    -2.0178295   -7.2950345    0.6999297 
H    -1.7662894   -5.2601672    2.1344479 
H    -2.1196975   -2.9956003    1.1632814 
H    -2.9954972   -4.7808500   -2.6806947 
H    -2.6500154   -7.0456179   -1.7073731 
C    -5.8093531    3.2469110    0.3625797 
C    -5.6260206    3.1317432   -1.0230258 
C    -4.9076753    2.0522044   -1.5490190 
C    -4.3715054    1.0562143   -0.7023343 
C    -4.5702473    1.1820350    0.6917915 
C    -5.2753390    2.2683579    1.2177270 
H    -6.3645152    4.0949838    0.7765877 
H    -6.0358786    3.8899552   -1.6977316 
H    -4.7584783    1.9738971   -2.6309025 
H    -4.1621678    0.4315623    1.3738029 
H    -5.4097637    2.3523816    2.3011700 
O     2.5874945    1.7222793    2.8041498 
O     4.3562025    0.7072631    0.6046519 
O     1.8313116   -0.0070411    4.9363750 
O     5.1095101    2.6738172   -1.3153043 
C     1.7313534    0.1564489    1.2246951 
C     2.0639025    1.1709406    0.1773862 
C     1.1474128   -1.1057567    0.9525840 
C     1.0708779    1.9156466   -0.5129265 
C     1.9907089    0.5139297    2.5656687 
C     3.4208790    1.4398903   -0.0749682 
C     1.6182435   -0.3386266    3.6306098 
C     3.8021502    2.4224311   -1.0202391 
C     0.7610866   -1.9415904    2.0254031 
C     1.4619655    2.9226266   -1.4181687 
C     0.9959560   -1.5636006    3.3479654 
C     2.8133084    3.1733451   -1.6688862 
C     3.2068412    1.8089009    4.0966209 
C     5.6605903    1.3076358    0.6126394 
C     2.2288137    1.3539702    5.1687639 
C     6.0476232    1.7151005   -0.8007869 
C     0.9619925   -3.3997520   -0.8838359 
C     1.9567598   -0.9722874   -1.9155648 
C    -1.5998484    2.8260140   -1.1495312 
C    -0.9605563    1.7163672    1.5264509 
C     0.3853337   -4.0540313   -1.9896179 
C     1.5998883   -0.1295401   -2.9832751 
C    -2.1879839    3.9258338   -0.5001969 
C    -0.4941656    2.8801759    2.1725124 
C     1.8410122   -4.1111599   -0.0403712 
C     3.2903431   -1.4109276   -1.7876922 
C    -1.6801724    2.7284870   -2.5562545 
C    -1.5909450    0.7084969    2.2800056 
C     0.6685749   -5.4016689   -2.2415576 
C     2.5698628    0.2939995   -3.9021554 
C    -2.8161471    4.9297604   -1.2524576 
C    -0.7154826    3.0526622    3.5449906 
C     2.1135476   -5.4627002   -0.2921892 
C     4.2526309   -0.9962192   -2.7155064 
C    -2.2958835    3.7399394   -3.3034846 
C    -1.7897355    0.8742656    3.6566228 
C     1.5267950   -6.1108086   -1.3890040 
C     3.8968712   -0.1392222   -3.7698476 
C    -2.8596887    4.8479608   -2.6508847 
C    -1.3679702    2.0542742    4.2869539 
H     0.2716270   -2.8987214    1.8238524 
H     0.7083283    3.5165289   -1.9409245 
H     0.7001447   -2.2014328    4.1857940 
H     3.1273529    3.9427999   -2.3798461 
H     3.4882091    2.8642394    4.2343374 
H     4.1192455    1.1816725    4.1080005 
H     5.6551002    2.1881188    1.2840571 
H     6.3488519    0.5477047    1.0135653 
H     1.3316027    1.9991665    5.1603648 
H     2.6868966    1.3750937    6.1699316 
H     6.0603355    0.8284937   -1.4608495 
H     7.0338778    2.2041174   -0.8260148 
H    -0.2851700   -3.5010719   -2.6562397 
H     0.5606930    0.2047186   -3.0813991 
H    -2.1776046    3.9953248    0.5908226 
H     0.0539525    3.6397953    1.6052907 
H     2.3215105   -3.6130597    0.8070423 
H     3.5757464   -2.0724478   -0.9639655 
H    -1.2527995    1.8562861   -3.0662050 
H    -1.8969961   -0.2187523    1.7817868 
H     0.2085655   -5.9013489   -3.0998631 
H     2.2878932    0.9617256   -4.7225052 
H    -3.2810740    5.7762005   -0.7369099 
H    -0.3673436    3.9660285    4.0391589 
H     2.7936026   -6.0087812    0.3700063 
H     5.2847650   -1.3502466   -2.6194070 
H    -2.3415777    3.6604810   -4.3946567 
H    -2.2683693    0.0798664    4.2381629 
H     1.7413355   -7.1671158   -1.5813350 
H     4.6533887    0.1861496   -4.4914057 
H    -3.3457427    5.6379934   -3.2325731 
H    -1.5332263    2.1892477    5.3611350 
