107
Energy =
C     1.2098152    2.8813062    2.4298846 
C     1.7679400    1.6928893    2.9867626 
C     2.8800496    1.0629261    2.3804444 
H     1.2515909    1.1995252    3.8210983 
Pd    1.0855962    1.1794937    0.9686583 
P     1.3835822   -0.9293984   -0.0609456 
P    -0.7923914    1.6605111   -0.3427577 
H     1.8978669    3.5460152    1.8853195 
H     3.5087490    1.6876852    1.7269082 
C    -2.2781714    4.8004006    4.0635445 
C    -2.2411350    3.4010628    3.9415929 
C    -1.1071986    2.7716845    3.4198381 
C     0.0096887    3.5277687    2.9979326 
C    -0.0411414    4.9320696    3.1258001 
C    -1.1715767    5.5616800    3.6615391 
H    -3.1681735    5.2932715    4.4676820 
H    -3.1052488    2.8015280    4.2471080 
H    -1.0923762    1.6815820    3.3016519 
H     0.8161036    5.5333463    2.8022863 
H    -1.1925219    6.6523341    3.7560497 
C     4.8892400   -2.4626843    3.8028547 
C     5.5758690   -1.4949615    3.0553697 
C     4.9022370   -0.3618875    2.5856820 
C     3.5322995   -0.1639519    2.8683401 
C     2.8546753   -1.1446974    3.6283280 
C     3.5244125   -2.2837673    4.0842858 
H     5.4129267   -3.3536973    4.1644070 
H     6.6386200   -1.6262760    2.8285155 
H     5.4409826    0.3840378    1.9921306 
H     1.7921497   -1.0243002    3.8556602 
H     2.9789196   -3.0365324    4.6628114 
O    -2.4939267   -1.1167151   -3.5098179 
O    -2.2743394   -3.2346852   -1.3975414 
O    -0.6931624   -1.4554964   -5.6901743 
O    -4.1685891   -3.2026204    0.7295846 
C    -0.6624403   -1.1089292   -1.9960088 
C    -1.6653325   -0.9896237   -0.8928697 
C     0.7364271   -1.1939605   -1.7629338 
C    -1.8382831    0.1729715   -0.1006490 
C    -1.1433252   -1.2116384   -3.3133774 
C    -2.4507045   -2.1305499   -0.6108095 
C    -0.2544693   -1.3865170   -4.4013009 
C    -3.3699571   -2.1265361    0.4646216 
C     1.6090232   -1.4080490   -2.8489011 
C    -2.7032963    0.1370442    1.0166614 
C     1.1190303   -1.5056034   -4.1536978 
C    -3.4665380   -0.9987441    1.2914033 
C    -2.9281736   -1.6616207   -4.7649001 
C    -2.9026008   -4.4344937   -0.9173602 
C    -2.0713984   -1.1009394   -5.8899193 
C    -4.2845780   -4.1205207   -0.3683772 
C     3.1668050   -1.3516802   -0.1988887 
C     0.5676022   -2.2569783    0.9120540 
C    -1.8704097    3.1142567   -0.0154128 
C    -0.5026678    1.8775259   -2.1497570 
C     3.7195614   -2.5763740    0.2154968 
C     0.5663314   -3.5889217    0.4471891 
C    -1.2249534    4.3550752    0.1497710 
C     0.8085068    1.9264416   -2.6560754 
C     4.0090624   -0.3689529   -0.7646063 
C    -0.0994910   -1.9388905    2.1094152 
C    -3.2790938    3.0696375   -0.0742481 
C    -1.5951154    2.0701790   -3.0195581 
C     5.0880426   -2.8257012    0.0321353 
C    -0.0432470   -4.5936327    1.2103964 
C    -1.9736091    5.5318487    0.2698408 
C     1.0286521    2.1382387   -4.0239086 
C     5.3715616   -0.6274899   -0.9573867 
C    -0.7360355   -2.9412377    2.8530920 
C    -4.0236966    4.2499965    0.0556472 
C    -1.3697440    2.2943811   -4.3825774 
C     5.9123798   -1.8624223   -0.5648853 
C    -0.6949247   -4.2719868    2.4127329 
C    -3.3744698    5.4808485    0.2308057 
C    -0.0599036    2.3222934   -4.8885557 
H     2.6852688   -1.4956856   -2.6814362 
H    -2.7983265    1.0138699    1.6635965 
H     1.7898110   -1.6599468   -5.0036265 
H    -4.1640136   -1.0301295    2.1333603 
H    -3.9831508   -1.3696295   -4.8815746 
H    -2.8550774   -2.7657785   -4.7292823 
H    -2.9510985   -5.1207080   -1.7772394 
H    -2.2734848   -4.8795074   -0.1252293 
H    -2.1617790    0.0003060   -5.9220588 
H    -2.3589670   -1.5200429   -6.8667644 
H    -4.7736045   -5.0222720    0.0306837 
H    -4.9245563   -3.6758698   -1.1552222 
H     3.0946184   -3.3304161    0.7011656 
H     1.0307707   -3.8346309   -0.5136191 
H    -0.1308622    4.3962992    0.1805224 
H     1.6548103    1.7815590   -1.9749422 
H     3.5911588    0.6017378   -1.0583778 
H    -0.1410783   -0.8934518    2.4366771 
H    -3.7980553    2.1190720   -0.2298576 
H    -2.6186190    2.0411356   -2.6331716 
H     5.5102643   -3.7780663    0.3683481 
H    -0.0166948   -5.6313681    0.8607913 
H    -1.4609158    6.4893423    0.4050644 
H     2.0513115    2.1601422   -4.4137090 
H     6.0126926    0.1369122   -1.4086670 
H    -1.2684762   -2.6818564    3.7737029 
H    -5.1170517    4.2060732    0.0127396 
H    -2.2214424    2.4546528   -5.0524349 
H     6.9784123   -2.0653241   -0.7103603 
H    -1.1819456   -5.0579942    2.9991966 
H    -3.9598935    6.4004292    0.3329279 
H     0.1120853    2.4929552   -5.9563347 
