107
Energy =
C    -2.5069430   -2.0630600   -2.1863579 
C    -3.4133225   -1.3902452   -1.3362268 
C    -3.5351192    0.0300512   -1.3506647 
H    -3.9081788   -1.9611651   -0.5398866 
Pd   -1.4227361   -0.5310502   -0.8804024 
P    -0.6969639    1.5969282   -0.2216309 
P     0.6137838   -1.5529056   -0.3500086 
H    -2.1221178   -1.5111849   -3.0591956 
H    -3.3620502    0.5427550   -2.3070614 
C    -1.9512696   -6.3181968   -2.3995462 
C    -0.9858783   -5.4449929   -2.9261071 
C    -1.1785783   -4.0626244   -2.8562675 
C    -2.3323513   -3.5228569   -2.2424413 
C    -3.2977974   -4.4136664   -1.7196480 
C    -3.1099109   -5.7976008   -1.8032155 
H    -1.8034783   -7.4012790   -2.4601629 
H    -0.0780152   -5.8448904   -3.3884858 
H    -0.4173257   -3.3837032   -3.2573104 
H    -4.2180299   -4.0232744   -1.2730083 
H    -3.8746340   -6.4739612   -1.4073791 
C    -5.8618779    2.3031984    1.4712800 
C    -5.3627515    1.0411916    1.8367503 
C    -4.6094561    0.2922609    0.9286682 
C    -4.3366865    0.7866176   -0.3690365 
C    -4.8459898    2.0554909   -0.7218204 
C    -5.6016084    2.8049993    0.1883818 
H    -6.4496416    2.8896220    2.1849684 
H    -5.5577096    0.6440638    2.8384856 
H    -4.2111029   -0.6809911    1.2369413 
H    -4.6414196    2.4558993   -1.7205918 
H    -5.9848378    3.7871917   -0.1072043 
O     2.7619981    2.1517321    2.6262728 
O     4.3906839    0.8442992    0.5366533 
O     2.4108365    0.5978846    4.9869012 
O     5.0851164    2.5396877   -1.6399170 
C     1.8050128    0.4012236    1.3275873 
C     2.0807583    1.2637122    0.1356742 
C     1.2179604   -0.8899625    1.2587804 
C     1.0706788    1.9253851   -0.6118185 
C     2.1938477    0.9077573    2.5874979 
C     3.4307080    1.4809795   -0.2038492 
C     1.9959734    0.1480288    3.7650462 
C     3.7867544    2.3229518   -1.2840022 
C     0.9942710   -1.6201613    2.4444387 
C     1.4378416    2.7818478   -1.6704182 
C     1.3791731   -1.1062055    3.6844886 
C     2.7795360    2.9765243   -2.0055113 
C     2.9186424    2.7124208    3.9397902 
C     5.6794228    1.4710167    0.4575272 
C     3.3887238    1.6456875    4.9145128 
C     6.0530507    1.6931426   -1.0003711 
C     0.4733467   -3.3647187   -0.0682901 
C     1.9963156   -1.3320231   -1.5313061 
C    -1.6154159    2.8982405   -1.1432465 
C    -0.8667729    1.9841756    1.5590197 
C    -0.7152569   -3.8407407    0.5253837 
C     3.3268143   -1.6143189   -1.1584383 
C    -2.2252894    4.0030000   -0.5216552 
C    -1.5179622    1.0665579    2.4032753 
C     1.4853196   -4.2816231   -0.4128279 
C     1.7173384   -0.8831650   -2.8368808 
C    -1.7390740    2.7402736   -2.5423899 
C    -0.3453848    3.1821805    2.0912400 
C    -0.8735807   -5.2035532    0.8019604 
C     4.3573882   -1.4769826   -2.0965127 
C    -2.9230686    4.9473732   -1.2910130 
C    -1.6580114    1.3450916    3.7690671 
C     1.3186597   -5.6466952   -0.1419837 
C     2.7560021   -0.7250625   -3.7645039 
C    -2.4317417    3.6869215   -3.3067512 
C    -0.5166952    3.4694171    3.4516172 
C     0.1448911   -6.1092494    0.4695835 
C     4.0754488   -1.0298016   -3.3971998 
C    -3.0240513    4.7966132   -2.6803517 
C    -1.1670849    2.5501862    4.2919650 
H     0.5431738   -2.6147460    2.4006873 
H     0.6725802    3.3173197   -2.2368531 
H     1.2379309   -1.6763434    4.6071233 
H     3.0712907    3.6375273   -2.8265824 
H     1.9502735    3.1269620    4.2740269 
H     3.6524057    3.5275635    3.8399397 
H     5.6523623    2.4320968    1.0064662 
H     6.3873814    0.7883586    0.9522205 
H     3.4897396    2.0486011    5.9338535 
H     4.3601450    1.2232119    4.5909512 
H     6.0975708    0.7258013   -1.5333645 
H     7.0229200    2.2060712   -1.0962782 
H    -1.5222168   -3.1358283    0.7606917 
H     3.5565406   -1.9119178   -0.1302607 
H    -2.1774925    4.1218930    0.5641201 
H    -1.8950107    0.1277952    1.9848284 
H     2.4003542   -3.9381568   -0.9029778 
H     0.6845311   -0.6399259   -3.1134855 
H    -1.2866805    1.8693080   -3.0331893 
H     0.1982840    3.8792885    1.4447787 
H    -1.8016929   -5.5614338    1.2580112 
H     5.3870244   -1.7127126   -1.8069344 
H    -3.3985038    5.7996062   -0.7946624 
H    -2.1524063    0.6213719    4.4247519 
H     2.1103067   -6.3519246   -0.4156744 
H     2.5362859   -0.3623956   -4.7737394 
H    -2.5136065    3.5574975   -4.3909334 
H    -0.1386004    4.4132192    3.8591530 
H     0.0167472   -7.1769167    0.6751478 
H     4.8859612   -0.9123619   -4.1240764 
H    -3.5701338    5.5353436   -3.2759351 
H    -1.2865914    2.7731562    5.3573360 
