107
Energy =
C     1.1506590    2.8498286    2.4732248 
C     1.7381906    1.6645577    3.0092698 
C     2.8694364    1.0745677    2.4001515 
H     1.2280216    1.1396886    3.8279560 
Pd    1.0823795    1.1897793    0.9712436 
P     1.3847974   -0.9141211   -0.0666660 
P    -0.7760702    1.6929286   -0.3565256 
H     1.8241696    3.5528820    1.9598161 
H     3.4848358    1.7252234    1.7592005 
C    -2.4337033    4.5876817    4.1042164 
C    -2.3281912    3.1926429    3.9718790 
C    -1.1632367    2.6230069    3.4498420 
C    -0.0814226    3.4353720    3.0397072 
C    -0.2012598    4.8341072    3.1785089 
C    -1.3638543    5.4043238    3.7122278 
H    -3.3478872    5.0338980    4.5085970 
H    -3.1627842    2.5492559    4.2704375 
H    -1.0979372    1.5357821    3.3227114 
H     0.6273271    5.4787821    2.8643175 
H    -1.4381743    6.4919979    3.8134823 
C     4.9514017   -2.4377458    3.7480892 
C     5.6123266   -1.4504746    3.0029370 
C     4.9149578   -0.3217360    2.5584376 
C     3.5462337   -0.1481439    2.8632025 
C     2.8945507   -1.1492965    3.6195512 
C     3.5883466   -2.2832895    4.0514297 
H     5.4937668   -3.3250729    4.0906570 
H     6.6734311   -1.5627314    2.7589593 
H     5.4341895    0.4408514    1.9687048 
H     1.8339561   -1.0488206    3.8644930 
H     3.0630592   -3.0513180    4.6285760 
O    -2.5037627   -1.0979866   -3.4976712 
O    -2.2631164   -3.2109277   -1.3539818 
O    -0.7257111   -1.5975143   -5.6690198 
O    -4.0923716   -3.1836223    0.8258130 
C    -0.6642544   -1.0962972   -1.9945253 
C    -1.6586068   -0.9548799   -0.8855238 
C     0.7352191   -1.1810794   -1.7681981 
C    -1.8428683    0.2219594   -0.1168819 
C    -1.1543120   -1.2159329   -3.3094836 
C    -2.4356427   -2.0939781   -0.5827964 
C    -0.2690311   -1.4389948   -4.3917666 
C    -3.3451054   -2.0904468    0.5001745 
C     1.6077054   -1.3814071   -2.8566746 
C    -2.7377248    0.2078710    0.9775546 
C     1.1085994   -1.5160246   -4.1545385 
C    -3.4826831   -0.9328693    1.2800305 
C    -2.9126220   -0.9522875   -4.8676139 
C    -3.3727525   -4.1197061   -1.2968447 
C    -2.1254870   -1.9044081   -5.7534107 
C    -3.7314457   -4.4016668    0.1541329 
C     3.1647083   -1.3477090   -0.2039790 
C     0.5594605   -2.2340865    0.9103489 
C    -1.8238134    3.1722022   -0.0458911 
C    -0.4714252    1.8982666   -2.1625608 
C     3.7048113   -2.5826400    0.1967207 
C     0.5238477   -3.5619691    0.4364489 
C    -1.1496731    4.3973576    0.1218585 
C     0.8427460    1.9250172   -2.6607019 
C     4.0163457   -0.3671891   -0.7590003 
C    -0.0846838   -1.9103035    2.1194393 
C    -3.2318322    3.1636778   -0.1312311 
C    -1.5549520    2.1123356   -3.0391882 
C     5.0706286   -2.8434410    0.0105057 
C    -0.0979267   -4.5589043    1.1993746 
C    -1.8691981    5.5948010    0.2136522 
C     1.0756271    2.1337129   -4.0273079 
C     5.3758137   -0.6380663   -0.9569679 
C    -0.7252730   -2.9055945    2.8682881 
C    -3.9475868    4.3642121   -0.0269138 
C    -1.3166460    2.3363202   -4.4002156 
C     5.9040941   -1.8823556   -0.5777628 
C    -0.7172196   -4.2340130    2.4174201 
C    -3.2697452    5.5798825    0.1469588 
C    -0.0031924    2.3388711   -4.8983988 
H     2.6859831   -1.4505479   -2.6940971 
H    -2.8527363    1.0994055    1.6005018 
H     1.7726524   -1.6949243   -5.0049394 
H    -4.1784942   -0.9539122    2.1236899 
H    -2.7410303    0.0913995   -5.1889824 
H    -3.9916110   -1.1708428   -4.8916170 
H    -4.2335132   -3.6795777   -1.8364504 
H    -3.0491409   -5.0365096   -1.8131485 
H    -2.4046635   -1.7935066   -6.8123941 
H    -2.2932545   -2.9531094   -5.4395593 
H    -2.8701935   -4.8589668    0.6741515 
H    -4.6044674   -5.0682254    0.2338992 
H     3.0711321   -3.3361578    0.6720128 
H     0.9661980   -3.8095464   -0.5341388 
H    -0.0554468    4.4097843    0.1746931 
H     1.6820956    1.7656701   -1.9742988 
H     3.6083273    0.6115750   -1.0396048 
H    -0.1042610   -0.8657356    2.4513227 
H    -3.7724130    2.2255941   -0.2894230 
H    -2.5808598    2.1059615   -2.6578839 
H     5.4836785   -3.8035418    0.3360074 
H    -0.1087430   -5.5918451    0.8353557 
H    -1.3343516    6.5403619    0.3483164 
H     2.1011194    2.1373511   -4.4102513 
H     6.0244762    0.1244510   -1.4006045 
H    -1.2361083   -2.6433067    3.8002886 
H    -5.0407312    4.3482179   -0.0897932 
H    -2.1588736    2.5211603   -5.0757766 
H     6.9678789   -2.0946574   -0.7262975 
H    -1.2083147   -5.0145216    3.0082025 
H    -3.8328692    6.5154194    0.2272025 
H     0.1780778    2.5084902   -5.9646899 
