107
Energy =
C     1.1773675    2.8647674    2.4489538 
C     1.7522758    1.6784567    2.9946281 
C     2.8742567    1.0697828    2.3854838 
H     1.2400021    1.1684621    3.8214365 
Pd    1.0831652    1.1831979    0.9674358 
P     1.3804452   -0.9253842   -0.0624981 
P    -0.7852728    1.6760805   -0.3543403 
H     1.8571320    3.5508762    1.9209304 
H     3.4946299    1.7086451    1.7375281 
C    -2.3666381    4.6802514    4.0823981 
C    -2.2930484    3.2834746    3.9473489 
C    -1.1409444    2.6884232    3.4251434 
C    -0.0410280    3.4767983    3.0171250 
C    -0.1285511    4.8777606    3.1585327 
C    -1.2780011    5.4731987    3.6931535 
H    -3.2710069    5.1464337    4.4863302 
H    -3.1426227    2.6588832    4.2434900 
H    -1.0992826    1.6003122    3.2952386 
H     0.7144348    5.5039334    2.8450441 
H    -1.3275269    6.5620472    3.7972199 
C     4.9328001   -2.4406342    3.7745019 
C     5.6016063   -1.4638397    3.0226413 
C     4.9115423   -0.3362658    2.5638738 
C     3.5426301   -0.1528641    2.8615803 
C     2.8828365   -1.1435018    3.6245917 
C     3.5692073   -2.2766677    4.0704178 
H     5.4695046   -3.3269694    4.1283870 
H     6.6631577   -1.5836325    2.7841725 
H     5.4364693    0.4170271    1.9672479 
H     1.8215508   -1.0355495    3.8633158 
H     3.0376942   -3.0365160    4.6526900 
O    -2.5038031   -1.1238628   -3.5020910 
O    -2.2745393   -3.2236012   -1.3754335 
O    -0.7047193   -1.4488803   -5.6879375 
O    -4.0881280   -3.2127185    0.8196815 
C    -0.6657245   -1.1020372   -1.9944935 
C    -1.6634397   -0.9724490   -0.8877855 
C     0.7329725   -1.1907560   -1.7640639 
C    -1.8459987    0.2001764   -0.1129878 
C    -1.1514822   -1.2109654   -3.3097040 
C    -2.4415701   -2.1129365   -0.5931902 
C    -0.2640104   -1.3827664   -4.3992125 
C    -3.3446188   -2.1163165    0.4950224 
C     1.6034179   -1.4075188   -2.8511693 
C    -2.7374799    0.1799942    0.9841313 
C     1.1101342   -1.5022113   -4.1547745 
C    -3.4795381   -0.9635050    1.2827092 
C    -2.9391085   -1.6516477   -4.7645319 
C    -3.3763192   -4.1417353   -1.3074238 
C    -2.0799852   -1.0823231   -5.8831848 
C    -3.7204885   -4.4273430    0.1462242 
C     3.1592128   -1.3642566   -0.1972331 
C     0.5528129   -2.2433802    0.9153945 
C    -1.8451226    3.1460604   -0.0411978 
C    -0.4825328    1.8846053   -2.1608183 
C     4.0124363   -0.3915381   -0.7635959 
C     0.5181622   -3.5719532    0.4432467 
C    -1.1828980    4.3765627    0.1341361 
C     0.8322362    1.9301802   -2.6577356 
C     3.6972128   -2.5952892    0.2178147 
C    -0.0913783   -1.9184633    2.1240338 
C    -3.2530368    3.1244272   -0.1273978 
C    -1.5679919    2.0794964   -3.0389358 
C     5.3717130   -0.6663977   -0.9568464 
C    -0.1028474   -4.5683035    1.2074778 
C    -1.9142513    5.5660161    0.2357923 
C     1.0630685    2.1421405   -4.0239277 
C     5.0627482   -2.8603855    0.0350512 
C    -0.7316781   -2.9132215    2.8740265 
C    -3.9805238    4.3170616   -0.0145177 
C    -1.3320232    2.3046371   -4.4000005 
C     5.8980187   -1.9071274   -0.5631024 
C    -0.7226067   -4.2421855    2.4250870 
C    -3.3146433    5.5378186    0.1695146 
C    -0.0184015    2.3301097   -4.8964021 
H     2.6797393   -1.4980154   -2.6856556 
H    -2.8529371    1.0687261    1.6110893 
H     1.7785487   -1.6552366   -5.0068062 
H    -4.1716623   -0.9908451    2.1291967 
H    -3.9932051   -1.3548412   -4.8773834 
H    -2.8694499   -2.7565487   -4.7440981 
H    -4.2467187   -3.7089020   -1.8376119 
H    -3.0500449   -5.0553121   -1.8278269 
H    -2.1635086    0.0197692   -5.9015945 
H    -2.3711946   -1.4878785   -6.8645967 
H    -2.8507489   -4.8762614    0.6592988 
H    -4.5863170   -5.1023667    0.2323322 
H     3.6056428    0.5838288   -1.0574636 
H     0.9614606   -3.8205072   -0.5266953 
H    -0.0889822    4.3996562    0.1857429 
H     1.6732807    1.7843091   -1.9702581 
H     3.0621783   -3.3423343    0.7014702 
H    -0.1111927   -0.8736305    2.4551039 
H    -3.7845429    2.1822550   -0.2918916 
H    -2.5944535    2.0528788   -2.6602978 
H     6.0217877    0.0900915   -1.4086805 
H    -0.1123458   -5.6018768    0.8451494 
H    -1.3885999    6.5155601    0.3778923 
H     2.0886842    2.1616335   -4.4060831 
H     5.4740853   -3.8173914    0.3716209 
H    -1.2430504   -2.6498928    3.8054365 
H    -5.0734159    4.2909394   -0.0784912 
H    -2.1783464    2.4683963   -5.0758582 
H     6.9615377   -2.1227183   -0.7088011 
H    -1.2131948   -5.0222495    3.0168712 
H    -3.8868754    6.4670777    0.2579399 
H     0.1617992    2.5014885   -5.9627021 
