107
Energy =
C     1.6565560    3.0923269    1.7277750 
C     2.0182802    2.0730764    2.6371000 
C     2.8655909    0.9936676    2.2507988 
H     1.5031893    2.0283252    3.6054126 
Pd    1.0609944    1.0322922    0.9313107 
P     1.3997905   -1.0516143   -0.0840119 
P    -0.9880263    1.3933298   -0.1417560 
H     2.2707399    3.2065241    0.8198535 
H     3.6313641    1.1990853    1.4900167 
C    -0.8359018    6.4771296    2.6169873 
C    -0.5925287    6.0998978    1.2865682 
C     0.2238591    5.0005063    1.0078106 
C     0.8002740    4.2434045    2.0536330 
C     0.5500099    4.6368684    3.3883597 
C    -0.2560795    5.7463410    3.6652293 
H    -1.4703417    7.3422562    2.8351382 
H    -1.0453118    6.6633458    0.4647036 
H     0.4018959    4.7016579   -0.0316216 
H     1.0148022    4.0916694    4.2162807 
H    -0.4273602    6.0468297    4.7041260 
C     3.6932648   -2.4505915    4.7006818 
C     2.5107817   -1.7187916    4.9046887 
C     2.2324771   -0.5972476    4.1186167 
C     3.1310438   -0.1778440    3.1086522 
C     4.3162379   -0.9217500    2.9178617 
C     4.5942671   -2.0456024    3.7058295 
H     3.9082310   -3.3304826    5.3156944 
H     1.8004391   -2.0299844    5.6778816 
H     1.2964373   -0.0502909    4.2785423 
H     5.0227259   -0.6135961    2.1396475 
H     5.5187868   -2.6077815    3.5379750 
O    -2.4072529   -1.2070772   -3.6190661 
O    -2.0203595   -3.4605161   -1.7477289 
O    -0.5602823   -1.1031019   -5.7828356 
O    -4.0157588   -3.8018231    0.2547529 
C    -0.5991632   -1.1486098   -2.0681825 
C    -1.6310183   -1.2364013   -0.9873334 
C     0.7987008   -1.1251515   -1.8211175 
C    -1.9645645   -0.1672035   -0.1142550 
C    -1.0556237   -1.1608839   -3.4011367 
C    -2.3374845   -2.4521225   -0.8772222 
C    -0.1453334   -1.1140223   -4.4835843 
C    -3.3348606   -2.6286466    0.1108887 
C     1.6974161   -1.1084510   -2.9077279 
C    -2.9797141   -0.3463108    0.8487023 
C     1.2312385   -1.0976061   -4.2240027 
C    -3.6535126   -1.5638539    0.9639599 
C    -2.7598149   -1.6714948   -4.9310199 
C    -3.0437377   -4.4600406   -1.8680182 
C    -1.9685351   -0.9040719   -5.9792127 
C    -3.4882066   -4.9131227   -0.4858774 
C     3.1977202   -1.4213138   -0.2100357 
C     0.6218364   -2.4871026    0.7440035 
C    -2.0599853    2.6141368    0.7193432 
C    -0.9350770    1.9181522   -1.8964924 
C     4.0430898   -0.3964896   -0.6919653 
C     0.0167840   -2.3110588    2.0021862 
C    -2.0040101    2.6474535    2.1291983 
C     0.2707838    2.4147799   -2.4280653 
C     3.7622967   -2.6481084    0.1837422 
C     0.6118355   -3.7566398    0.1296063 
C    -2.9209297    3.5006330    0.0437517 
C    -2.0816197    1.8440117   -2.7144222 
C     5.4227558   -0.6069550   -0.8046337 
C    -0.5818630   -3.3982747    2.6513210 
C    -2.8198131    3.5264287    2.8507848 
C     0.3299864    2.8417318   -3.7617615 
C     5.1466718   -2.8532928    0.0743178 
C     0.0301953   -4.8442653    0.7928480 
C    -3.7299550    4.3850713    0.7703651 
C    -2.0229117    2.2951022   -4.0388301 
C     5.9775966   -1.8400677   -0.4222030 
C    -0.5668404   -4.6666057    2.0519803 
C    -3.6860129    4.3963279    2.1716413 
C    -0.8190156    2.7901072   -4.5652325 
H     2.7756030   -1.1153311   -2.7320864 
H    -3.2549624    0.4753823    1.5148172 
H     1.9211825   -1.0797942   -5.0724810 
H    -4.4378225   -1.7126355    1.7116384 
H    -3.8417894   -1.4996669   -5.0398000 
H    -2.5519229   -2.7566309   -5.0035644 
H    -3.8986332   -4.0426696   -2.4348477 
H    -2.5989585   -5.2902278   -2.4381106 
H    -2.1957604    0.1755812   -5.9130666 
H    -2.1922514   -1.2612641   -6.9966478 
H    -2.6325942   -5.3434494    0.0656801 
H    -4.2978260   -5.6572676   -0.5449261 
H     3.6139888    0.5710954   -0.9811236 
H     0.0040997   -1.3153855    2.4570242 
H    -1.3082003    1.9850773    2.6587794 
H     1.1659567    2.4450467   -1.7955295 
H     3.1301787   -3.4399947    0.5946172 
H     1.0417514   -3.8866921   -0.8691063 
H    -2.9561156    3.5134681   -1.0490229 
H    -3.0072983    1.4102113   -2.3224860 
H     6.0666119    0.1921888   -1.1863086 
H    -1.0606200   -3.2551785    3.6251851 
H    -2.7640623    3.5467253    3.9435284 
H     1.2731839    3.2134814   -4.1747143 
H     5.5752438   -3.8100139    0.3900645 
H     0.0353457   -5.8326392    0.3208173 
H    -4.3941806    5.0721008    0.2358149 
H    -2.9206977    2.2530020   -4.6648738 
H     7.0568634   -2.0044812   -0.5047864 
H    -1.0277769   -5.5179458    2.5640576 
H    -4.3162922    5.0916406    2.7354151 
H    -0.7743848    3.1300587   -5.6051738 
