107
Energy =
C     1.6402176    3.0902686    1.7625300 
C     1.9978487    2.0617155    2.6630291 
C     2.8493813    0.9885144    2.2696356 
H     1.4779419    2.0062556    3.6281697 
Pd    1.0503422    1.0380378    0.9407079 
P     1.3989002   -1.0331617   -0.0948707 
P    -0.9900343    1.4024033   -0.1476753 
H     2.2590974    3.2134404    0.8589976 
H     3.6166193    1.2036518    1.5130696 
C    -0.8420277    6.4773258    2.6703329 
C    -0.5885672    6.1146832    1.3377236 
C     0.2226777    5.0129802    1.0531974 
C     0.7843602    4.2394463    2.0951090 
C     0.5228490    4.6174877    3.4321952 
C    -0.2782447    5.7290468    3.7150135 
H    -1.4719321    7.3446035    2.8930866 
H    -1.0293803    6.6915315    0.5186463 
H     0.4093390    4.7257136    0.0119846 
H     0.9753646    4.0586782    4.2578346 
H    -0.4578520    6.0176725    4.7558764 
C     3.6824134   -2.4823266    4.6797407 
C     2.5041929   -1.7483992    4.8999754 
C     2.2238657   -0.6180679    4.1272824 
C     3.1162413   -0.1916938    3.1147686 
C     4.2978799   -0.9373476    2.9083453 
C     4.5776588   -2.0702180    3.6825747 
H     3.8986853   -3.3692403    5.2841186 
H     1.7984244   -2.0650068    5.6751655 
H     1.2910434   -0.0696367    4.3002683 
H     5.0005730   -0.6227396    2.1292885 
H     5.4993048   -2.6333928    3.5026484 
O    -2.4244421   -1.2361737   -3.6038729 
O    -2.0093595   -3.4686426   -1.7117968 
O    -0.5879189   -1.2664951   -5.7797755 
O    -4.0261577   -3.7869477    0.2705643 
C    -0.6076539   -1.1550283   -2.0691916 
C    -1.6329451   -1.2336022   -0.9816546 
C     0.7904998   -1.1034016   -1.8304093 
C    -1.9699595   -0.1561436   -0.1194084 
C    -1.0718221   -1.1899761   -3.4014692 
C    -2.3365069   -2.4496240   -0.8585488 
C    -0.1612231   -1.1747518   -4.4847199 
C    -3.3426342   -2.6163017    0.1223119 
C     1.6850052   -1.0505007   -2.9191412 
C    -2.9905012   -0.3272240    0.8394793 
C     1.2130780   -1.0861004   -4.2330884 
C    -3.6670406   -1.5427013    0.9618250 
C    -2.8489868   -1.0508216   -4.9639084 
C    -3.0389059   -4.4597432   -1.8420423 
C    -1.9179737   -1.7885298   -5.9117014 
C    -3.5012227   -4.9047389   -0.4628487 
C     3.1997828   -1.3845988   -0.2323058 
C     0.6363825   -2.4805061    0.7260600 
C    -2.0617957    2.6313164    0.7023038 
C    -0.9167706    1.9239240   -1.9023197 
C     3.7755297   -2.6145381    0.1347890 
C     0.6295325   -3.7453566    0.1021183 
C    -2.0258810    2.6560978    2.1132356 
C     0.3021774    2.3983801   -2.4228945 
C     4.0353739   -0.3432537   -0.6953025 
C     0.0377709   -2.3172322    1.9891786 
C    -2.9004516    3.5340789    0.0202212 
C    -2.0604116    1.8825204   -2.7276417 
C     5.1613139   -2.8055801    0.0186393 
C     0.0571169   -4.8409794    0.7602372 
C    -2.8413441    3.5404529    2.8284368 
C     0.3797654    2.8352008   -3.7527088 
C     5.4166295   -0.5395336   -0.8149115 
C    -0.5505671   -3.4125549    2.6337813 
C    -3.7090175    4.4240976    0.7406361 
C    -1.9839766    2.3494321   -4.0461191 
C     5.9826898   -1.7752159   -0.4584322 
C    -0.5325963   -4.6762159    2.0244122 
C    -3.6864874    4.4255268    2.1423662 
C    -0.7653394    2.8197351   -4.5620158 
H     2.7633362   -1.0173065   -2.7477206 
H    -3.2695510    0.5002420    1.4967030 
H     1.8983910   -1.0772724   -5.0854600 
H    -4.4572698   -1.6824543    1.7050172 
H    -2.8473314    0.0282401   -5.2022829 
H    -3.8791952   -1.4361526   -5.0192421 
H    -3.8824879   -4.0363317   -2.4209906 
H    -2.5943868   -5.2957899   -2.4036800 
H    -2.2099359   -1.6366822   -6.9620705 
H    -1.9140090   -2.8729805   -5.6866709 
H    -2.6546400   -5.3408345    0.0982336 
H    -4.3167547   -5.6420445   -0.5270464 
H     3.1510193   -3.4199049    0.5308150 
H     1.0529887   -3.8654774   -0.9005275 
H    -1.3460269    1.9823144    2.6491385 
H     1.1932829    2.4052967   -1.7838248 
H     3.5976644    0.6267665   -0.9626405 
H     0.0221013   -1.3250796    2.4514633 
H    -2.9188120    3.5555579   -1.0727539 
H    -2.9990970    1.4708245   -2.3422540 
H     5.5987101   -3.7649400    0.3136687 
H     0.0627688   -5.8251953    0.2796665 
H    -2.8011327    3.5532950    3.9219631 
H     1.3338957    3.1887393   -4.1564356 
H     6.0529129    0.2728533   -1.1810035 
H    -1.0235913   -3.2795579    3.6118709 
H    -4.3561488    5.1231013    0.2006613 
H    -2.8796714    2.3474394   -4.6765865 
H     7.0632215   -1.9285188   -0.5457479 
H    -0.9855705   -5.5339748    2.5329303 
H    -4.3160443    5.1253802    2.7012915 
H    -0.7085751    3.1704723   -5.5976216 
