107
Energy =
C     1.1897633    2.8696279    2.4469851 
C     1.7548578    1.6808251    2.9970566 
C     2.8731688    1.0631554    2.3903978 
H     1.2390768    1.1773603    3.8256460 
Pd    1.0821168    1.1829386    0.9709749 
P     1.3835205   -0.9231792   -0.0657111 
P    -0.7886645    1.6715180   -0.3465449 
H     1.8749351    3.5454620    1.9126573 
H     3.4988241    1.6964197    1.7421152 
C    -2.3262985    4.7387747    4.0791012 
C    -2.2684691    3.3399792    3.9581085 
C    -1.1254004    2.7271110    3.4367092 
C    -0.0195956    3.4993312    3.0142408 
C    -0.0912692    4.9026545    3.1416328 
C    -1.2311124    5.5159115    3.6765111 
H    -3.2234948    5.2187376    4.4828762 
H    -3.1232877    2.7278072    4.2648027 
H    -1.0950254    1.6372369    3.3197219 
H     0.7570587    5.5163610    2.8179998 
H    -1.2682376    6.6062185    3.7699492 
C     4.8994871   -2.4643756    3.7829477 
C     5.5802399   -1.4891790    3.0397777 
C     4.9010449   -0.3553280    2.5802116 
C     3.5312912   -0.1641358    2.8687037 
C     2.8597217   -1.1523906    3.6244075 
C     3.5350479   -2.2921099    4.0703297 
H     5.4274811   -3.3560382    4.1365622 
H     6.6426254   -1.6152704    2.8083196 
H     5.4352036    0.3966801    1.9902226 
H     1.7976457   -1.0374149    3.8564457 
H     2.9942291   -3.0506215    4.6457280 
O    -2.4929195   -1.0827238   -3.5126191 
O    -2.2589577   -3.2315593   -1.3755189 
O    -0.7094443   -1.5882173   -5.6771854 
O    -4.1655250   -3.1866456    0.7389898 
C    -0.6636001   -1.1067463   -1.9997139 
C    -1.6633056   -0.9793627   -0.8937762 
C     0.7357250   -1.1889617   -1.7685196 
C    -1.8376292    0.1865893   -0.1063481 
C    -1.1464052   -1.2125826   -3.3188064 
C    -2.4444080   -2.1210390   -0.6015351 
C    -0.2565986   -1.4336421   -4.3981097 
C    -3.3673006   -2.1109955    0.4710477 
C     1.6127546   -1.3828715   -2.8546023 
C    -2.7033496    0.1557106    1.0105552 
C     1.1195483   -1.5136249   -4.1552406 
C    -3.4671585   -0.9785443    1.2904167 
C    -2.8994681   -0.9461165   -4.8838249 
C    -2.8973971   -4.4270027   -0.8991336 
C    -2.1081297   -1.9004082   -5.7633272 
C    -4.2808159   -4.1054844   -0.3584167 
C     3.1681360   -1.3394387   -0.2053664 
C     0.5711178   -2.2521244    0.9077929 
C    -1.8607400    3.1299131   -0.0200711 
C    -0.4944975    1.8900036   -2.1520560 
C     3.7234894   -2.5677128    0.1948805 
C     0.5716553   -3.5845744    0.4444785 
C    -1.2089063    4.3678597    0.1419750 
C     0.8169105    1.9163617   -2.6579570 
C     4.0086975   -0.3484556   -0.7590716 
C    -0.0946708   -1.9340178    2.1060338 
C    -3.2695982    3.0925944   -0.0797464 
C    -1.5827588    2.1115302   -3.0209388 
C     5.0925202   -2.8119344    0.0092135 
C    -0.0337129   -4.5897498    1.2105013 
C    -1.9513660    5.5492032    0.2558823 
C     1.0420243    2.1298000   -4.0249632 
C     5.3717095   -0.6020667   -0.9551692 
C    -0.7271181   -2.9368071    2.8524294 
C    -4.0080307    4.2773930    0.0449277 
C    -1.3519779    2.3410877   -4.3823936 
C     5.9149749   -1.8402600   -0.5768833 
C    -0.6832899   -4.2681519    2.4139297 
C    -3.3524066    5.5055655    0.2152728 
C    -0.0416654    2.3414054   -4.8886251 
H     2.6904370   -1.4510296   -2.6879883 
H    -2.7983378    1.0355461    1.6533295 
H     1.7874464   -1.6901375   -5.0031377 
H    -4.1666486   -1.0049691    2.1308941 
H    -2.7300090    0.0962828   -5.2106113 
H    -3.9778731   -1.1676930   -4.9086337 
H    -2.9445976   -5.1133013   -1.7591019 
H    -2.2758265   -4.8756449   -0.1030162 
H    -2.3854086   -1.7954934   -6.8233690 
H    -2.2730509   -2.9478418   -5.4439404 
H    -4.7764573   -5.0042059    0.0392254 
H    -4.9138976   -3.6582849   -1.1493329 
H     3.1000242   -3.3288139    0.6713254 
H     1.0338732   -3.8304474   -0.5173319 
H    -0.1145265    4.4031743    0.1742720 
H     1.6600148    1.7525722   -1.9773382 
H     3.5891012    0.6251677   -1.0405032 
H    -0.1384030   -0.8881082    2.4315546 
H    -3.7933060    2.1442200   -0.2329653 
H    -2.6062413    2.1076024   -2.6332259 
H     5.5167900   -3.7671016    0.3347777 
H    -0.0054913   -5.6278532    0.8621581 
H    -1.4337776    6.5045828    0.3878182 
H     2.0651536    2.1322668   -4.4141263 
H     6.0113330    0.1689719   -1.3972050 
H    -1.2583451   -2.6774995    3.7737708 
H    -5.1015795    4.2390907    0.0014832 
H    -2.1978009    2.5319077   -5.0517474 
H     6.9814704   -2.0392793   -0.7243551 
H    -1.1672720   -5.0545608    3.0023821 
H    -3.9330420    6.4286637    0.3129342 
H     0.1336526    2.5149527   -5.9552886 
