107
Energy =
C     1.6655575    3.0966258    1.7229496 
C     2.0347583    2.0777842    2.6298050 
C     2.8832943    1.0013665    2.2374921 
H     1.5246867    2.0298949    3.6007129 
Pd    1.0720528    1.0353884    0.9285279 
P     1.4057438   -1.0520786   -0.0810814 
P    -0.9836351    1.3875431   -0.1317981 
H     2.2750474    3.2132281    0.8121439 
H     3.6460161    1.2107053    1.4746249 
C    -0.8353875    6.4717106    2.6250642 
C    -0.5996365    6.0938502    1.2934358 
C     0.2197932    4.9978115    1.0103820 
C     0.8068396    4.2446925    2.0531623 
C     0.5642120    4.6387260    3.3891063 
C    -0.2448911    5.7449950    3.6701745 
H    -1.4722810    7.3341897    2.8465441 
H    -1.0607621    6.6541238    0.4740415 
H     0.3918109    4.6982644   -0.0298694 
H     1.0372416    4.0965493    4.2143605 
H    -0.4101539    6.0461710    4.7098526 
C     3.7274550   -2.4442226    4.6792606 
C     2.5328038   -1.7294096    4.8724691 
C     2.2494057   -0.6073733    4.0889613 
C     3.1544277   -0.1712675    3.0920114 
C     4.3509110   -0.8990286    2.9107825 
C     4.6347513   -2.0226126    3.6971231 
H     3.9465070   -3.3245894    5.2921685 
H     1.8167926   -2.0547851    5.6344926 
H     1.3043790   -0.0733057    4.2394752 
H     5.0614910   -0.5785844    2.1412576 
H     5.5684840   -2.5718705    3.5376445 
O    -2.4046786   -1.1888788   -3.6148746 
O    -2.0280718   -3.4561123   -1.7582406 
O    -0.5592068   -1.1247739   -5.7790389 
O    -4.1112664   -3.7576641    0.1601070 
C    -0.5979415   -1.1501774   -2.0635631 
C    -1.6338245   -1.2389660   -0.9866098 
C     0.8004891   -1.1332722   -1.8165382 
C    -1.9542034   -0.1777917   -0.0988387 
C    -1.0531187   -1.1593375   -3.3968603 
C    -2.3521078   -2.4512450   -0.8882190 
C    -0.1435029   -1.1285017   -4.4803925 
C    -3.3696037   -2.6125711    0.0822602 
C     1.6984051   -1.1278052   -2.9040478 
C    -2.9448005   -0.3663219    0.8872114 
C     1.2330065   -1.1222633   -4.2207691 
C    -3.6449124   -1.5712592    0.9766652 
C    -2.7607833   -1.6766827   -4.9167966 
C    -2.6168637   -4.7334173   -1.4647720 
C    -1.9679612   -0.9297587   -5.9788951 
C    -4.0622122   -4.5588135   -1.0294942 
C     3.2045084   -1.4188901   -0.2083778 
C     0.6272560   -2.4810614    0.7565377 
C    -2.0560608    2.6029931    0.7365304 
C    -0.9431027    1.9110103   -1.8869018 
C     3.7775320   -2.6369525    0.1999260 
C     0.6536715   -3.7645628    0.1714395 
C    -1.9878199    2.6402577    2.1457593 
C     0.2593572    2.4080900   -2.4261039 
C     4.0432843   -0.3959793   -0.7061749 
C    -0.0134770   -2.2874740    1.9938828 
C    -2.9286165    3.4823217    0.0664660 
C    -2.0935423    1.8322474   -2.6988518 
C     5.1623383   -2.8370717    0.0860371 
C     0.0772944   -4.8475064    0.8478490 
C    -2.8034024    3.5152281    2.8725189 
C     0.3113231    2.8299956   -3.7615891 
C     5.4233699   -0.6011444   -0.8226422 
C    -0.6160362   -3.3686021    2.6501796 
C    -3.7370702    4.3630670    0.7981189 
C    -2.0416857    2.2770717   -4.0256415 
C     5.9860032   -1.8269097   -0.4281342 
C    -0.5621348   -4.6501634    2.0833269 
C    -3.6811663    4.3777805    2.1989856 
C    -0.8412584    2.7720621   -4.5596652 
H     2.7765554   -1.1408219   -2.7287525 
H    -3.1971600    0.4448390    1.5748894 
H     1.9237318   -1.1160609   -5.0687838 
H    -4.4357479   -1.7180004    1.7178584 
H    -3.8420552   -1.5024040   -5.0284196 
H    -2.5574407   -2.7637868   -4.9675194 
H    -2.5364699   -5.3278554   -2.3883778 
H    -2.0381341   -5.2223097   -0.6601753 
H    -2.1946907    0.1511340   -5.9329909 
H    -2.1911446   -1.3052897   -6.9898989 
H    -4.5250239   -5.5243606   -0.7742693 
H    -4.6533872   -4.0704950   -1.8287920 
H     3.1524596   -3.4258957    0.6266181 
H     1.1148193   -3.9107637   -0.8111156 
H    -1.2821285    1.9846497    2.6706738 
H     1.1575382    2.4421413   -1.7980565 
H     3.6084309    0.5660789   -1.0050540 
H    -0.0526116   -1.2821343    2.4257632 
H    -2.9731104    3.4926514   -1.0259887 
H    -3.0164776    1.3978635   -2.3013706 
H     5.5968949   -3.7872959    0.4130025 
H     0.1241970   -5.8496431    0.4080987 
H    -2.7382172    3.5384279    3.9646778 
H     1.2516915    3.2023622   -4.1803953 
H     6.0614671    0.1964794   -1.2169750 
H    -1.1264271   -3.2101329    3.6054082 
H    -4.4105539    5.0443742    0.2678316 
H    -2.9418659    2.2287748   -4.6477450 
H     7.0655936   -1.9873927   -0.5141712 
H    -1.0230020   -5.4974112    2.6017939 
H    -4.3109236    5.0704406    2.7666007 
H    -0.8019294    3.1071509   -5.6014107 
