110
Energy =
C    -3.7027147    1.5905724    0.1160368 
C    -3.3493982    2.0701217    1.4113125 
C    -2.3523133    3.0556791    1.5884635 
H    -3.7376372    1.5516446    2.2974214 
Pd   -1.5225070    1.2412698    0.4711947 
P     0.6645105    1.0228929    1.2768765 
P    -1.1453656   -0.1581794   -1.3702327 
H    -3.6216921    2.2948167   -0.7234776 
H    -2.0714928    3.6585989    0.7096812 
C    -6.3552501   -1.7231690   -0.6116506 
C    -5.6725787   -1.6336811    0.6136123 
C    -4.8112930   -0.5617506    0.8628415 
C    -4.6115521    0.4491713   -0.1073985 
C    -5.3059690    0.3461039   -1.3327531 
C    -6.1691290   -0.7281086   -1.5814280 
H    -7.0276758   -2.5650455   -0.8059626 
H    -5.8099449   -2.4085946    1.3751126 
H    -4.2730448   -0.5184007    1.8164715 
H    -5.1616975    1.1171023   -2.0971330 
H    -6.6955504   -0.7872625   -2.5396650 
C    -1.0983872    4.7227912    5.3441830 
C    -0.3032369    4.8708821    4.1964401 
C    -0.7230613    4.3289465    2.9787655 
C    -1.9382836    3.6118403    2.8859327 
C    -2.7305453    3.4733760    4.0487946 
C    -2.3155955    4.0289973    5.2638979 
H    -0.7728483    5.1528621    6.2968298 
H     0.6491385    5.4071290    4.2535580 
H    -0.0939904    4.4362616    2.0877927 
H    -3.6938727    2.9556224    3.9971691 
H    -2.9483582    3.9264456    6.1515908 
C     2.0185608    2.0136563    3.5899828 
C     2.1143067    2.2612282    4.9663422 
C     1.0561215    1.9225278    5.8217594 
C    -0.1093211    1.3426672    5.2981470 
C    -0.2134051    1.1014559    3.9234474 
C     0.8565229    1.4198220    3.0602790 
C     1.9687512    1.9727777    0.4112404 
C     3.3261663    1.6014790    0.5045674 
C     4.3025330    2.3540139   -0.1591889 
C     3.9338033    3.4746645   -0.9198068 
C     2.5836861    3.8433246   -1.0210634 
C     1.6020954    3.0942255   -0.3580266 
C     1.1793871   -0.7468861    1.1489765 
C     1.1569207   -1.5664860    2.2959555 
C     1.4919599   -2.9230431    2.2042116 
C     1.8647402   -3.4791551    0.9760122 
C     1.5389174   -1.2961637   -0.1066763 
C     1.9009600   -2.6658028   -0.1672078 
C     1.6482197   -0.5247980   -1.3826638 
C     2.9398155   -0.4230914   -1.9571580 
O     3.9622573   -0.9491030   -1.2173640 
C     4.9817845   -1.7583914   -1.8614268 
C     6.0114774   -2.0345077   -0.7707340 
C     4.3674383   -3.0195924   -2.5008275 
C     3.4768705   -3.8770901   -1.5857280 
O     2.2257969   -3.1539125   -1.3985666 
C     3.1378044   -5.2356282   -2.1934435 
C     3.1403070    0.2354690   -3.1796755 
C     2.0428045    0.7799961   -3.8548367 
C     0.7524064    0.6680501   -3.3226892 
C     0.5474558    0.0165287   -2.0897841 
C    -2.2724869    0.2564102   -2.7618163 
C    -3.0085634   -0.7157590   -3.4632259 
C    -3.8636948   -0.3309276   -4.5076900 
C    -3.9927932    1.0198702   -4.8583126 
C    -3.2686867    1.9971740   -4.1545513 
C    -2.4200886    1.6185771   -3.1070610 
C    -1.3072896   -1.9556851   -1.0682824 
C    -0.8414759   -2.8894288   -2.0173292 
C    -0.9413912   -4.2601723   -1.7508425 
C    -1.4985018   -4.7041299   -0.5413252 
C    -1.9561710   -3.7763524    0.4068353 
C    -1.8607158   -2.4037280    0.1458646 
H     2.8467652    2.2910571    2.9315946 
H     3.0206174    2.7243675    5.3701331 
H     1.1333753    2.1210632    6.8956717 
H    -0.9465699    1.0964783    5.9583446 
H    -1.1332582    0.6706039    3.5094759 
H     3.6129264    0.7031896    1.0606326 
H     5.3533921    2.0536524   -0.0940507 
H     4.6995227    4.0573220   -1.4425834 
H     2.2939314    4.7098656   -1.6242542 
H     0.5431633    3.3639622   -0.4497643 
H     0.8909476   -1.1425360    3.2676339 
H     1.4623594   -3.5508750    3.1006727 
H     2.1157914   -4.5407020    0.8930185 
H     5.4628312   -1.1668037   -2.6649102 
H     6.8495846   -2.6268005   -1.1738234 
H     6.4076789   -1.0831052   -0.3796055 
H     5.5568390   -2.5853098    0.0699487 
H     5.1993238   -3.6380526   -2.8849159 
H     3.7562905   -2.7281634   -3.3744259 
H     3.9536097   -4.0119826   -0.5972019 
H     2.4641496   -5.7966232   -1.5246448 
H     2.6289781   -5.1015332   -3.1636202 
H     4.0518098   -5.8317654   -2.3556640 
H     4.1483023    0.3257589   -3.5939823 
H     2.1919677    1.2922542   -4.8108529 
H    -0.0949538    1.0705820   -3.8824508 
H    -2.9303817   -1.7712053   -3.1873427 
H    -4.4372095   -1.0946903   -5.0429382 
H    -4.6614660    1.3148846   -5.6734840 
H    -3.3699131    3.0548672   -4.4190154 
H    -1.8639249    2.3842423   -2.5516302 
H    -0.3702445   -2.5438722   -2.9430647 
H    -0.5661154   -4.9827813   -2.4825721 
H    -1.5684525   -5.7771427   -0.3336336 
H    -2.3799602   -4.1216945    1.3553301 
H    -2.1956567   -1.6715313    0.8873793 
