110
Energy =
C    -3.8351052    1.6592387    0.3052624 
C    -3.4769723    1.4473719    1.6557499 
C    -2.5512808    2.3068927    2.3244514 
H    -3.8023581    0.5253785    2.1548487 
Pd   -1.5799948    1.3768055    0.5484709 
P     0.6776053    1.4648475    1.1123767 
P    -1.1774006   -0.0420312   -1.2915716 
H    -3.6962517    2.6753984   -0.0964193 
H    -2.5375059    3.3665487    2.0296040 
C    -6.5118681   -0.7501268   -2.0429402 
C    -6.2655445    0.5887227   -2.3797834 
C    -5.3800384    1.3538834   -1.6128109 
C    -4.7332143    0.8012755   -0.4844734 
C    -4.9884249   -0.5513616   -0.1595258 
C    -5.8653935   -1.3177766   -0.9322555 
H    -7.2008174   -1.3518350   -2.6447016 
H    -6.7589450    1.0380435   -3.2472803 
H    -5.1868774    2.3969588   -1.8844362 
H    -4.4903489   -1.0151693    0.6961971 
H    -6.0457686   -2.3647612   -0.6673986 
C    -0.9744121    1.4626045    6.2436341 
C    -1.3503203    0.4061478    5.3970295 
C    -1.8679655    0.6731263    4.1258492 
C    -2.0304345    2.0039980    3.6727704 
C    -1.6559969    3.0534228    4.5389432 
C    -1.1310422    2.7862539    5.8092452 
H    -0.5609218    1.2531033    7.2353834 
H    -1.2293058   -0.6312562    5.7270988 
H    -2.1201404   -0.1623548    3.4632394 
H    -1.7772200    4.0900843    4.2086477 
H    -0.8386417    3.6162745    6.4601457 
C     2.1335671    1.8845764    3.5720954 
C     2.5955577    2.7266392    4.5948322 
C     2.1855502    4.0659887    4.6519016 
C     1.3028861    4.5673288    3.6832826 
C     0.8199734    3.7255192    2.6753546 
C     1.2309649    2.3775940    2.6107379 
C     1.8378201    2.1886229   -0.1166003 
C     1.3510009    2.9706247   -1.1783038 
C     2.2470950    3.5771897   -2.0699429 
C     3.6283214    3.4030108   -1.9016689 
C     4.1162829    2.6250053   -0.8388531 
C     3.2268100    2.0239859    0.0580253 
C     1.1004275   -0.3119919    1.2914606 
C     0.9100271   -0.9371744    2.5440105 
C     1.1407790   -2.3094520    2.6879828 
C     1.5565223   -3.0787399    1.5944014 
C     1.4540754   -1.0846799    0.1585196 
C     1.7081365   -2.4703471    0.3395725 
C     1.5944452   -0.5672841   -1.2376176 
C     2.8796274   -0.6476277   -1.8231461 
O     3.8923187   -1.0475434   -1.0013325 
C     4.7731622   -2.1341080   -1.4121664 
C     6.2085518   -1.6328453   -1.2808216 
C     4.4766186   -3.3398511   -0.5034666 
C     3.1560350   -4.0879617   -0.7736195 
O     2.0324154   -3.1687159   -0.7887518 
C     3.0929340   -4.8086656   -2.1163282 
C     3.0940839   -0.2710303   -3.1587492 
C     2.0150954    0.1732190   -3.9296479 
C     0.7303736    0.2521076   -3.3759462 
C     0.5124807   -0.1156269   -2.0340875 
C    -2.2777709    0.2992352   -2.7184877 
C    -2.3437009    1.6357925   -3.1694777 
C    -3.1149369    1.9669518   -4.2902154 
C    -3.8490208    0.9709108   -4.9536264 
C    -3.8167679   -0.3498004   -4.4849118 
C    -3.0324300   -0.6906212   -3.3729591 
C    -1.4310011   -1.7892331   -0.7780587 
C    -1.0665031   -2.8469406   -1.6369252 
C    -1.2096349   -4.1735146   -1.2112020 
C    -1.7009865   -4.4543064    0.0730495 
C    -2.0443735   -3.4046932    0.9387506 
C    -1.9083726   -2.0771512    0.5150151 
H     2.4933002    0.8531040    3.5210158 
H     3.2918224    2.3329795    5.3426815 
H     2.5572754    4.7202886    5.4471972 
H     0.9819931    5.6136160    3.7184891 
H     0.1252370    4.1166967    1.9220872 
H     0.2691445    3.0913682   -1.3095713 
H     1.8654729    4.1816977   -2.8992049 
H     4.3274787    3.8745643   -2.6001521 
H     5.1942176    2.4825983   -0.7101346 
H     3.6096022    1.4081232    0.8785115 
H     0.5754739   -0.3506099    3.4034760 
H     0.9924410   -2.7857300    3.6627203 
H     1.7314070   -4.1525652    1.7042348 
H     4.5538140   -2.3824148   -2.4671234 
H     6.9255639   -2.4136990   -1.5863222 
H     6.3624117   -0.7443953   -1.9155211 
H     6.4194461   -1.3519951   -0.2345571 
H     4.4837260   -2.9751582    0.5399095 
H     5.2993377   -4.0730640   -0.5912789 
H     3.0109846   -4.8287923    0.0372111 
H     3.1813178   -4.0931891   -2.9513510 
H     3.9051124   -5.5503331   -2.1940623 
H     2.1268643   -5.3298528   -2.2161050 
H     4.1035489   -0.3135062   -3.5786654 
H     2.1751336    0.4682424   -4.9717655 
H    -0.1033076    0.5911346   -3.9958382 
H    -1.7821307    2.4160616   -2.6414323 
H    -3.1496376    3.0036140   -4.6411087 
H    -4.4579404    1.2285885   -5.8263323 
H    -4.4095079   -1.1238615   -4.9828667 
H    -3.0219778   -1.7225400   -3.0110249 
H    -0.6407727   -2.6321619   -2.6225143 
H    -0.9198035   -4.9904300   -1.8800811 
H    -1.8032206   -5.4929240    0.4047589 
H    -2.4039821   -3.6196766    1.9503215 
H    -2.1353798   -1.2498841    1.1969698 
