110
Energy =
C    -3.7093871    1.5877250    0.1271488 
C    -3.3521198    2.0709051    1.4199787 
C    -2.3442498    3.0463062    1.5923875 
H    -3.7469650    1.5619436    2.3086776 
Pd   -1.5333512    1.2164185    0.4867314 
P     0.6496466    0.9790797    1.2973629 
P    -1.1682669   -0.1974429   -1.3463996 
H    -3.6198635    2.2861047   -0.7163979 
H    -2.0558991    3.6410225    0.7104465 
C    -6.3981160   -1.7004515   -0.5832801 
C    -5.7140633   -1.6123400    0.6413171 
C    -4.8409797   -0.5486905    0.8849213 
C    -4.6305376    0.4551142   -0.0904338 
C    -5.3263791    0.3534921   -1.3150809 
C    -6.2013746   -0.7124000   -1.5581113 
H    -7.0798193   -2.5358481   -0.7731789 
H    -5.8597468   -2.3818287    1.4067645 
H    -4.3019535   -0.5063859    1.8381716 
H    -5.1738978    1.1190484   -2.0833267 
H    -6.7287198   -0.7706190   -2.5158972 
C    -1.0757284    4.7211297    5.3397831 
C    -0.2772092    4.8526768    4.1923734 
C    -0.7018048    4.3085200    2.9773465 
C    -1.9253920    3.6054752    2.8870526 
C    -2.7209472    3.4836235    4.0495106 
C    -2.3011081    4.0416177    5.2618452 
H    -0.7463729    5.1529849    6.2903055 
H     0.6814806    5.3777475    4.2476644 
H    -0.0702174    4.4029988    2.0867038 
H    -3.6903885    2.9772553    3.9995200 
H    -2.9364151    3.9522032    6.1491406 
C     2.0107577    1.9630231    3.6087670 
C     2.1065024    2.2165305    4.9840263 
C     1.0422807    1.8954245    5.8387581 
C    -0.1290125    1.3271415    5.3155459 
C    -0.2330092    1.0800168    3.9418817 
C     0.8426018    1.3808553    3.0795320 
C     1.9650945    1.9117641    0.4298639 
C     3.3182158    1.5256154    0.5246089 
C     4.3029845    2.2626675   -0.1441322 
C     3.9466462    3.3834981   -0.9103020 
C     2.6008211    3.7673966   -1.0126266 
C     1.6109087    3.0331438   -0.3453690 
C     1.1456547   -0.7967392    1.1777831 
C     1.1058947   -1.6130583    2.3267430 
C     1.4266466   -2.9729022    2.2384924 
C     1.8062322   -3.5358810    1.0152698 
C     1.5058713   -1.3531361   -0.0738933 
C     1.8575798   -2.7263825   -0.1294462 
C     1.6229137   -0.5875131   -1.3525763 
C     2.9152233   -0.4966622   -1.9252888 
O     3.9434790   -1.0142988   -1.1921288 
C     4.8663042   -1.9621690   -1.8049411 
C     6.2799438   -1.4277904   -1.5920132 
C     4.6375067   -3.3280234   -1.1355636 
C     3.3422965   -4.0665568   -1.5275820 
O     2.1849415   -3.2057243   -1.3665200 
C     3.2874163   -4.5323732   -2.9789385 
C     3.1220612    0.1512041   -3.1531400 
C     2.0293081    0.6929392   -3.8377121 
C     0.7377694    0.5939200   -3.3046314 
C     0.5264894   -0.0435786   -2.0656471 
C    -2.2911968    0.2206145   -2.7404770 
C    -2.4234853    1.5822173   -3.0941741 
C    -3.2679825    1.9639096   -4.1438357 
C    -4.0032195    0.9905311   -4.8414841 
C    -3.8893303   -0.3594200   -4.4825001 
C    -3.0384612   -0.7474222   -3.4357254 
C    -1.3487703   -1.9916469   -1.0355497 
C    -0.8950010   -2.9343849   -1.9816017 
C    -1.0151350   -4.3027886   -1.7115232 
C    -1.5784912   -4.7357155   -0.5008331 
C    -2.0229847   -3.7989394    0.4446846 
C    -1.9087957   -2.4285252    0.1795979 
H     2.8436635    2.2268604    2.9507312 
H     3.0175256    2.6706243    5.3874792 
H     1.1195588    2.0986916    6.9117816 
H    -0.9707204    1.0948400    5.9751037 
H    -1.1572656    0.6586073    3.5279770 
H     3.5949669    0.6263910    1.0841242 
H     5.3497027    1.9483231   -0.0799766 
H     4.7185869    3.9541556   -1.4371765 
H     2.3207606    4.6338596   -1.6204953 
H     0.5550964    3.3143397   -0.4385111 
H     0.8394069   -1.1841145    3.2960474 
H     1.3860237   -3.5989693    3.1357617 
H     2.0536277   -4.5986883    0.9450899 
H     4.6413276   -2.0189232   -2.8858880 
H     7.0264692   -2.1040841   -2.0419134 
H     6.3851160   -0.4308153   -2.0512537 
H     6.4940736   -1.3371627   -0.5130390 
H     4.6504822   -3.1652562   -0.0424078 
H     5.4872639   -3.9953495   -1.3693812 
H     3.2370763   -4.9482716   -0.8655015 
H     3.3417918   -3.6745195   -3.6702805 
H     4.1228146   -5.2187554   -3.1951740 
H     2.3383801   -5.0606319   -3.1665138 
H     4.1354765    0.2364369   -3.5566131 
H     2.1822325    1.1972861   -4.7973218 
H    -0.1064122    0.9979708   -3.8681650 
H    -1.8583649    2.3449122   -2.5437388 
H    -3.3572298    3.0210193   -4.4148564 
H    -4.6686800    1.2880290   -5.6583756 
H    -4.4715773   -1.1199480   -5.0129038 
H    -2.9723811   -1.8019499   -3.1532834 
H    -0.4195690   -2.5979441   -2.9086005 
H    -0.6535319   -5.0328414   -2.4429843 
H    -1.6643238   -5.8070517   -0.2905897 
H    -2.4519236   -4.1356338    1.3939724 
H    -2.2347685   -1.6896041    0.9184309 
