110
Energy =
C    -2.3323421   -1.5396416    2.9124994 
C    -2.2637595   -2.7638331    2.1849460 
C    -1.0491376   -3.4715933    2.0413777 
H    -3.1284866   -3.0798315    1.5872274 
Pd   -0.8522256   -1.3365763    1.2483580 
P     0.5382551   -1.5464261   -0.6228059 
P    -0.5751997    0.9870380    1.3817637 
H    -1.6440541   -1.4158664    3.7601170 
H    -0.2339939   -3.2300887    2.7426266 
C    -5.7998271    1.0095276    3.0708843 
C    -5.6283621    0.1340445    1.9847742 
C    -4.5092121   -0.7007206    1.9234062 
C    -3.5330037   -0.6818266    2.9481204 
C    -3.7209851    0.2011255    4.0341436 
C    -4.8427530    1.0371469    4.0949259 
H    -6.6756066    1.6650299    3.1155795 
H    -6.3699883    0.1084441    1.1794652 
H    -4.3823833   -1.3631373    1.0596603 
H    -2.9747706    0.2318639    4.8351713 
H    -4.9657884    1.7149847    4.9459742 
C    -0.5334156   -7.1871689   -0.0530248 
C     0.5757436   -6.3870264    0.2648862 
C     0.3971260   -5.1829451    0.9511591 
C    -0.8957651   -4.7438123    1.3187065 
C    -2.0031895   -5.5612987    0.9955453 
C    -1.8211405   -6.7735512    0.3211894 
H    -0.3931673   -8.1336215   -0.5850472 
H     1.5821919   -6.7020036   -0.0277953 
H     1.2640754   -4.5553528    1.1866568 
H    -3.0114872   -5.2640559    1.3016065 
H    -2.6876238   -7.4026389    0.0923436 
C    -0.1662701    0.8795387    4.1420970 
C    -0.3136471    1.2843459    5.4744250 
C    -1.1228609    2.3902152    5.7858171 
C    -1.7811184    3.0832081    4.7607812 
C    -1.6304939    2.6854655    3.4231227 
C    -0.8131256    1.5860871    3.1033598 
C    -1.6649352    1.9944789    0.3113895 
C    -1.4087484    3.3671295    0.1117884 
C    -2.2386249    4.1130138   -0.7337616 
C    -3.3175405    3.4961727   -1.3865325 
C    -3.5686986    2.1288891   -1.1953511 
C    -2.7444940    1.3775734   -0.3483127 
C     1.1262866    1.5516109    0.9353951 
C     2.0235071    2.0125797    1.9195480 
C     3.3057397    2.4463565    1.5595318 
C     3.7067504    2.4376806    0.2196742 
C     1.5195273    1.5241038   -0.4250607 
C     2.8122369    1.9918655   -0.7657716 
C     0.6253249    1.1323379   -1.5570951 
C     0.2905021    2.1588678   -2.4772405 
O     0.7607768    3.4052940   -2.1729913 
C     1.3574400    4.2278741   -3.2094419 
C     1.5973265    5.5813118   -2.5484295 
C     2.6211330    3.5581998   -3.7851305 
C     3.6758310    3.1093361   -2.7590594 
O     3.1552610    1.9258366   -2.0852402 
C     5.0031964    2.7219540   -3.4051789 
C    -0.5243906    1.8996492   -3.5894106 
C    -0.9937992    0.6001848   -3.8091766 
C    -0.6516256   -0.4373777   -2.9338585 
C     0.1583947   -0.1809932   -1.8085900 
C     0.2659530   -3.0780175   -1.5998412 
C    -1.0490985   -3.5835869   -1.6776028 
C    -1.3247388   -4.7239201   -2.4408137 
C    -0.2867150   -5.3822927   -3.1174043 
C     1.0258387   -4.8973509   -3.0266164 
C     1.3057332   -3.7504210   -2.2709227 
C     2.3438775   -1.4545526   -0.3336261 
C     3.2344919   -1.1222475   -1.3753958 
C     4.6112798   -1.0696211   -1.1265940 
C     5.1071478   -1.3449346    0.1573775 
C     4.2240002   -1.6695626    1.1984261 
C     2.8447656   -1.7232047    0.9551308 
H     0.4575216    0.0093487    3.9021226 
H     0.1980831    0.7344318    6.2710507 
H    -1.2439233    2.7040628    6.8276951 
H    -2.4250494    3.9359102    4.9994666 
H    -2.1640140    3.2232170    2.6342666 
H    -0.5445877    3.8403208    0.5891058 
H    -2.0326238    5.1762585   -0.8946210 
H    -3.9603135    4.0818448   -2.0522488 
H    -4.4030093    1.6444478   -1.7127821 
H    -2.9202536    0.3064464   -0.2072241 
H     1.7189842    2.0541503    2.9679122 
H     3.9968442    2.7957691    2.3334728 
H     4.7111176    2.7627627   -0.0677106 
H     0.6317237    4.3578625   -4.0361297 
H     2.0330759    6.2911119   -3.2709681 
H     0.6431038    5.9925042   -2.1805752 
H     2.2802165    5.4834830   -1.6876634 
H     3.0826158    4.2688376   -4.4951724 
H     2.3297792    2.6663348   -4.3693357 
H     3.8390262    3.8983439   -2.0016706 
H     5.4504053    3.5838170   -3.9289180 
H     5.7128619    2.3681566   -2.6389009 
H     4.8479397    1.9094804   -4.1359346 
H    -0.7942756    2.7112405   -4.2706972 
H    -1.6290197    0.3909259   -4.6760199 
H    -1.0042495   -1.4517770   -3.1370271 
H    -1.8554359   -3.0821548   -1.1284084 
H    -2.3472429   -5.1105050   -2.4909254 
H    -0.5003556   -6.2806807   -3.7055327 
H     1.8400096   -5.4152423   -3.5441984 
H     2.3350465   -3.3870659   -2.2002942 
H     2.8485556   -0.8636373   -2.3665328 
H     5.2960551   -0.7949466   -1.9353905 
H     6.1840683   -1.2970350    0.3499804 
H     4.6089144   -1.8722173    2.2031404 
H     2.1472854   -1.9550732    1.7688138 
