119_cs_CONF_0001.xyz
     RDKit          3D

 75 76  0  0  0  0  0  0  0  0999 V2000
   -0.1752   -2.9702   -0.0986 C   0  0  0  0  0  3  0  0  0  0  0  0
    1.1232   -2.6246    0.3398 C   0  0  1  0  0  0  0  0  0  0  0  0
    1.3128   -1.9841    1.6047 C   0  0  0  0  0  3  0  0  0  0  0  0
    1.9659   -2.6932   -0.3603 H   0  0  0  0  0  0  0  0  0  0  0  0
   -0.0038   -0.7330    0.3353 Pd  0  0  0  0  0  1  0  0  0  0  0  0
    0.0650    1.3113    1.4363 P   0  0  0  0  0  0  0  0  0  0  0  0
   -1.2190    0.3743   -1.3110 P   0  0  0  0  0  0  0  0  0  0  0  0
   -0.9598   -3.0312    0.6732 H   0  0  0  0  0  0  0  0  0  0  0  0
    0.6231   -2.2752    2.4099 H   0  0  0  0  0  0  0  0  0  0  0  0
   -1.3140   -4.7714   -3.8345 C   0  0  0  0  0  0  0  0  0  0  0  0
   -2.2853   -4.3679   -2.9044 C   0  0  0  0  0  0  0  0  0  0  0  0
   -1.8943   -3.7998   -1.6866 C   0  0  0  0  0  0  0  0  0  0  0  0
   -0.5270   -3.6078   -1.3780 C   0  0  0  0  0  0  0  0  0  0  0  0
    0.4393   -4.0439   -2.3135 C   0  0  0  0  0  0  0  0  0  0  0  0
    0.0481   -4.6169   -3.5282 C   0  0  0  0  0  0  0  0  0  0  0  0
   -1.6158   -5.2216   -4.7856 H   0  0  0  0  0  0  0  0  0  0  0  0
   -3.3488   -4.5067   -3.1251 H   0  0  0  0  0  0  0  0  0  0  0  0
   -2.6544   -3.4949   -0.9577 H   0  0  0  0  0  0  0  0  0  0  0  0
    1.5063   -3.9448   -2.0901 H   0  0  0  0  0  0  0  0  0  0  0  0
    0.8102   -4.9528   -4.2389 H   0  0  0  0  0  0  0  0  0  0  0  0
    5.0118   -0.2339    2.9550 C   0  0  0  0  0  0  0  0  0  0  0  0
    4.7452   -0.3306    1.5786 C   0  0  0  0  0  0  0  0  0  0  0  0
    3.5525   -0.9071    1.1300 C   0  0  0  0  0  0  0  0  0  0  0  0
    2.6002   -1.4102    2.0482 C   0  0  0  0  0  0  0  0  0  0  0  0
    2.8844   -1.3115    3.4288 C   0  0  0  0  0  0  0  0  0  0  0  0
    4.0770   -0.7277    3.8775 C   0  0  0  0  0  0  0  0  0  0  0  0
    5.9436    0.2219    3.3047 H   0  0  0  0  0  0  0  0  0  0  0  0
    5.4691    0.0542    0.8526 H   0  0  0  0  0  0  0  0  0  0  0  0
    3.3435   -0.9423    0.0545 H   0  0  0  0  0  0  0  0  0  0  0  0
    2.1639   -1.7025    4.1553 H   0  0  0  0  0  0  0  0  0  0  0  0
    4.2799   -0.6648    4.9517 H   0  0  0  0  0  0  0  0  0  0  0  0
   -1.0245    1.2733    3.0027 C   0  0  1  0  0  0  0  0  0  0  0  0
   -0.1292    0.5888   -2.8643 C   0  0  1  0  0  0  0  0  0  0  0  0
   -0.7424    2.5699    0.3562 C   0  0  0  0  0  0  0  0  0  0  0  0
   -1.5101    2.1044   -0.7424 C   0  0  0  0  0  0  0  0  0  0  0  0
   -2.4006    0.7202    2.5734 C   0  0  0  0  0  0  0  0  0  0  0  0
   -0.3560    0.3145    4.0098 C   0  0  0  0  0  0  0  0  0  0  0  0
   -1.1909    2.6669    3.6389 C   0  0  0  0  0  0  0  0  0  0  0  0
   -0.8544    1.3443   -3.9931 C   0  0  0  0  0  0  0  0  0  0  0  0
    1.1345    1.3630   -2.4307 C   0  0  0  0  0  0  0  0  0  0  0  0
    0.2623   -0.8275   -3.3325 C   0  0  0  0  0  0  0  0  0  0  0  0
    1.6937    2.0140    1.9190 C   0  0  0  0  0  0  0  0  0  0  0  0
   -2.8471   -0.2653   -1.8798 C   0  0  0  0  0  0  0  0  0  0  0  0
   -0.7226    3.9476    0.6529 C   0  0  0  0  0  0  0  0  0  0  0  0
   -2.3301    3.0092   -1.4463 C   0  0  0  0  0  0  0  0  0  0  0  0
   -1.5079    4.8443   -0.0843 C   0  0  0  0  0  0  0  0  0  0  0  0
   -2.3379    4.3700   -1.1109 C   0  0  0  0  0  0  0  0  0  0  0  0
   -2.3082   -0.2930    2.1401 H   0  0  0  0  0  0  0  0  0  0  0  0
   -3.0626    0.6564    3.4556 H   0  0  0  0  0  0  0  0  0  0  0  0
   -2.8885    1.3749    1.8299 H   0  0  0  0  0  0  0  0  0  0  0  0
    0.6388    0.6700    4.3277 H   0  0  0  0  0  0  0  0  0  0  0  0
   -0.2467   -0.6975    3.5884 H   0  0  0  0  0  0  0  0  0  0  0  0
   -0.9900    0.2401    4.9115 H   0  0  0  0  0  0  0  0  0  0  0  0
   -1.7445    3.3577    2.9825 H   0  0  0  0  0  0  0  0  0  0  0  0
   -1.7728    2.5608    4.5726 H   0  0  0  0  0  0  0  0  0  0  0  0
   -0.2231    3.1246    3.9079 H   0  0  0  0  0  0  0  0  0  0  0  0
   -1.1138    2.3757   -3.7024 H   0  0  0  0  0  0  0  0  0  0  0  0
   -0.1787    1.4100   -4.8654 H   0  0  0  0  0  0  0  0  0  0  0  0
   -1.7683    0.8231   -4.3263 H   0  0  0  0  0  0  0  0  0  0  0  0
    1.6578    0.8456   -1.6047 H   0  0  0  0  0  0  0  0  0  0  0  0
    0.8965    2.3902   -2.1047 H   0  0  0  0  0  0  0  0  0  0  0  0
    1.8303    1.4302   -3.2862 H   0  0  0  0  0  0  0  0  0  0  0  0
   -0.6122   -1.4517   -3.5841 H   0  0  0  0  0  0  0  0  0  0  0  0
    0.8905   -0.7512   -4.2383 H   0  0  0  0  0  0  0  0  0  0  0  0
    0.8435   -1.3529   -2.5570 H   0  0  0  0  0  0  0  0  0  0  0  0
    2.2184    1.2914    2.5650 H   0  0  0  0  0  0  0  0  0  0  0  0
    1.5881    2.9751    2.4485 H   0  0  0  0  0  0  0  0  0  0  0  0
    2.2900    2.1588    1.0041 H   0  0  0  0  0  0  0  0  0  0  0  0
   -3.3194    0.3933   -2.6266 H   0  0  0  0  0  0  0  0  0  0  0  0
   -3.5074   -0.3580   -1.0023 H   0  0  0  0  0  0  0  0  0  0  0  0
   -2.6958   -1.2650   -2.3189 H   0  0  0  0  0  0  0  0  0  0  0  0
   -0.1031    4.3279    1.4706 H   0  0  0  0  0  0  0  0  0  0  0  0
   -2.9593    2.6593   -2.2704 H   0  0  0  0  0  0  0  0  0  0  0  0
   -1.4862    5.9119    0.1565 H   0  0  0  0  0  0  0  0  0  0  0  0
   -2.9778    5.0635   -1.6656 H   0  0  0  0  0  0  0  0  0  0  0  0
  1  2  1  0
  1  8  1  0
  2  3  1  0
  3 24  1  0
  3  9  1  0
  2  4  1  1
  5  2  1  0
  6 42  1  0
 32  6  1  6
 33  7  1  1
  7 35  1  0
 10 15  2  0
 10 11  1  0
 11 12  2  0
 12 13  1  0
 12 18  1  0
 13  1  1  0
 14 19  1  0
 14 13  2  0
 15 14  1  0
 16 10  1  0
 17 11  1  0
 20 15  1  0
 21 27  1  0
 21 26  1  0
 22 21  2  0
 23 22  1  0
 23 24  2  0
 24 25  1  0
 25 26  2  0
 25 30  1  0
 26 31  1  0
 28 22  1  0
 29 23  1  0
 32 38  1  0
 32 37  1  0
 33 40  1  0
 34 44  1  0
 34  6  1  0
 35 34  2  0
 36 32  1  0
 36 49  1  0
 37 51  1  0
 37 53  1  0
 38 56  1  0
 38 55  1  0
 39 57  1  0
 39 33  1  0
 40 61  1  0
 40 60  1  0
 41 33  1  0
 41 65  1  0
 42 67  1  0
 42 66  1  0
 43  7  1  0
 43 70  1  0
 44 72  1  0
 45 47  2  0
 45 35  1  0
 46 74  1  0
 46 44  2  0
 47 46  1  0
 48 36  1  0
 50 36  1  0
 52 37  1  0
 54 38  1  0
 58 39  1  0
 59 39  1  0
 62 40  1  0
 63 41  1  0
 64 41  1  0
 68 42  1  0
 69 43  1  0
 71 43  1  0
 73 45  1  0
 75 47  1  0
M  END
>  <Energy>  (1) 
-2017.3022879999999

$$$$
119_cs_CONF_0002.xyz
     RDKit          3D

 75 76  0  0  0  0  0  0  0  0999 V2000
   -0.2648   -2.9647    0.1137 C   0  0  0  0  0  3  0  0  0  0  0  0
    1.0408   -2.6265    0.5365 C   0  0  1  0  0  0  0  0  0  0  0  0
    1.2424   -1.9021    1.7533 C   0  0  0  0  0  3  0  0  0  0  0  0
    1.8850   -2.7699   -0.1502 H   0  0  0  0  0  0  0  0  0  0  0  0
   -0.0299   -0.7079    0.3873 Pd  0  0  0  0  0  1  0  0  0  0  0  0
    0.0980    1.4085    1.3368 P   0  0  0  0  0  0  0  0  0  0  0  0
   -1.2039    0.3132   -1.3425 P   0  0  0  0  0  0  0  0  0  0  0  0
   -1.0555   -2.9475    0.8815 H   0  0  0  0  0  0  0  0  0  0  0  0
    0.5399   -2.1135    2.5722 H   0  0  0  0  0  0  0  0  0  0  0  0
   -1.4321   -4.9956   -3.4935 C   0  0  0  0  0  0  0  0  0  0  0  0
   -2.3971   -4.4992   -2.6026 C   0  0  0  0  0  0  0  0  0  0  0  0
   -1.9975   -3.8567   -1.4252 C   0  0  0  0  0  0  0  0  0  0  0  0
   -0.6272   -3.6820   -1.1198 C   0  0  0  0  0  0  0  0  0  0  0  0
    0.3319   -4.2110   -2.0139 C   0  0  0  0  0  0  0  0  0  0  0  0
   -0.0681   -4.8581   -3.1879 C   0  0  0  0  0  0  0  0  0  0  0  0
   -1.7409   -5.5039   -4.4125 H   0  0  0  0  0  0  0  0  0  0  0  0
   -3.4627   -4.6233   -2.8216 H   0  0  0  0  0  0  0  0  0  0  0  0
   -2.7530   -3.4792   -0.7262 H   0  0  0  0  0  0  0  0  0  0  0  0
    1.3999   -4.1265   -1.7894 H   0  0  0  0  0  0  0  0  0  0  0  0
    0.6884   -5.2653   -3.8664 H   0  0  0  0  0  0  0  0  0  0  0  0
    4.9858   -0.1699    3.0004 C   0  0  0  0  0  0  0  0  0  0  0  0
    4.0319   -0.5675    3.9494 C   0  0  0  0  0  0  0  0  0  0  0  0
    2.8244   -1.1463    3.5354 C   0  0  0  0  0  0  0  0  0  0  0  0
    2.5441   -1.3359    2.1636 C   0  0  0  0  0  0  0  0  0  0  0  0
    3.5158   -0.9293    1.2183 C   0  0  0  0  0  0  0  0  0  0  0  0
    4.7233   -0.3578    1.6327 C   0  0  0  0  0  0  0  0  0  0  0  0
    5.9292    0.2820    3.3229 H   0  0  0  0  0  0  0  0  0  0  0  0
    4.2312   -0.4333    5.0177 H   0  0  0  0  0  0  0  0  0  0  0  0
    2.0888   -1.4622    4.2831 H   0  0  0  0  0  0  0  0  0  0  0  0
    3.3110   -1.0357    0.1467 H   0  0  0  0  0  0  0  0  0  0  0  0
    5.4621   -0.0484    0.8860 H   0  0  0  0  0  0  0  0  0  0  0  0
   -0.9952    1.5199    2.8971 C   0  0  1  0  0  0  0  0  0  0  0  0
   -0.1003    0.3850   -2.8991 C   0  0  1  0  0  0  0  0  0  0  0  0
   -0.6683    2.6086    0.1641 C   0  0  0  0  0  0  0  0  0  0  0  0
   -1.4469    2.0873   -0.9013 C   0  0  0  0  0  0  0  0  0  0  0  0
   -2.3894    0.9869    2.5021 C   0  0  0  0  0  0  0  0  0  0  0  0
   -0.3635    0.6114    3.9723 C   0  0  0  0  0  0  0  0  0  0  0  0
   -1.1126    2.9600    3.4327 C   0  0  0  0  0  0  0  0  0  0  0  0
    0.2489   -1.0720   -3.2647 C   0  0  0  0  0  0  0  0  0  0  0  0
   -0.7963    1.0821   -4.0825 C   0  0  0  0  0  0  0  0  0  0  0  0
    1.1848    1.1483   -2.5116 C   0  0  0  0  0  0  0  0  0  0  0  0
    1.7472    2.0937    1.7726 C   0  0  0  0  0  0  0  0  0  0  0  0
   -2.8470   -0.3186   -1.8759 C   0  0  0  0  0  0  0  0  0  0  0  0
   -0.6088    4.0031    0.3602 C   0  0  0  0  0  0  0  0  0  0  0  0
   -2.2387    2.9620   -1.6723 C   0  0  0  0  0  0  0  0  0  0  0  0
   -1.3663    4.8663   -0.4430 C   0  0  0  0  0  0  0  0  0  0  0  0
   -2.2079    4.3431   -1.4358 C   0  0  0  0  0  0  0  0  0  0  0  0
   -2.3322   -0.0566    2.1406 H   0  0  0  0  0  0  0  0  0  0  0  0
   -3.0543    1.0079    3.3841 H   0  0  0  0  0  0  0  0  0  0  0  0
   -2.8532    1.6049    1.7131 H   0  0  0  0  0  0  0  0  0  0  0  0
    0.6442    0.9506    4.2662 H   0  0  0  0  0  0  0  0  0  0  0  0
   -0.2934   -0.4318    3.6253 H   0  0  0  0  0  0  0  0  0  0  0  0
   -0.9998    0.6266    4.8754 H   0  0  0  0  0  0  0  0  0  0  0  0
   -1.6402    3.6219    2.7271 H   0  0  0  0  0  0  0  0  0  0  0  0
   -1.6994    2.9408    4.3692 H   0  0  0  0  0  0  0  0  0  0  0  0
   -0.1293    3.4006    3.6726 H   0  0  0  0  0  0  0  0  0  0  0  0
   -0.6435   -1.6847   -3.4791 H   0  0  0  0  0  0  0  0  0  0  0  0
    0.8843   -1.0789   -4.1688 H   0  0  0  0  0  0  0  0  0  0  0  0
    0.8088   -1.5599   -2.4502 H   0  0  0  0  0  0  0  0  0  0  0  0
   -1.0236    2.1390   -3.8660 H   0  0  0  0  0  0  0  0  0  0  0  0
   -1.7250    0.5682   -4.3843 H   0  0  0  0  0  0  0  0  0  0  0  0
   -0.1152    1.0651   -4.9531 H   0  0  0  0  0  0  0  0  0  0  0  0
    1.6888    0.6728   -1.6490 H   0  0  0  0  0  0  0  0  0  0  0  0
    1.8861    1.1356   -3.3653 H   0  0  0  0  0  0  0  0  0  0  0  0
    0.9773    2.2022   -2.2581 H   0  0  0  0  0  0  0  0  0  0  0  0
    2.2443    1.4094    2.4791 H   0  0  0  0  0  0  0  0  0  0  0  0
    1.6716    3.0979    2.2209 H   0  0  0  0  0  0  0  0  0  0  0  0
    2.3521    2.1434    0.8533 H   0  0  0  0  0  0  0  0  0  0  0  0
   -3.2957    0.2972   -2.6720 H   0  0  0  0  0  0  0  0  0  0  0  0
   -3.5147   -0.3282   -0.9989 H   0  0  0  0  0  0  0  0  0  0  0  0
   -2.7227   -1.3515   -2.2400 H   0  0  0  0  0  0  0  0  0  0  0  0
    0.0203    4.4238    1.1504 H   0  0  0  0  0  0  0  0  0  0  0  0
   -2.8760    2.5717   -2.4718 H   0  0  0  0  0  0  0  0  0  0  0  0
   -1.3141    5.9475   -0.2799 H   0  0  0  0  0  0  0  0  0  0  0  0
   -2.8265    5.0128   -2.0417 H   0  0  0  0  0  0  0  0  0  0  0  0
  1  2  1  0
  1  8  1  0
  2  3  1  0
  3 24  1  0
  3  9  1  0
  2  4  1  1
  5  2  1  0
  6 42  1  0
 32  6  1  6
 33  7  1  1
  7 35  1  0
 10 15  2  0
 10 11  1  0
 11 12  2  0
 12 13  1  0
 12 18  1  0
 13  1  1  0
 14 19  1  0
 14 13  2  0
 15 14  1  0
 16 10  1  0
 17 11  1  0
 20 15  1  0
 21 27  1  0
 21 22  1  0
 22 28  1  0
 23 22  2  0
 23 29  1  0
 24 23  1  0
 25 26  1  0
 25 24  2  0
 26 21  2  0
 30 25  1  0
 31 26  1  0
 32 38  1  0
 32 37  1  0
 33 41  1  0
 34 44  1  0
 34  6  1  0
 35 34  2  0
 36 32  1  0
 36 49  1  0
 37 51  1  0
 37 53  1  0
 38 56  1  0
 38 55  1  0
 39 33  1  0
 39 59  1  0
 40 60  1  0
 40 33  1  0
 41 65  1  0
 41 63  1  0
 42 67  1  0
 42 66  1  0
 43  7  1  0
 43 70  1  0
 44 72  1  0
 45 47  2  0
 45 35  1  0
 46 74  1  0
 46 44  2  0
 47 46  1  0
 48 36  1  0
 50 36  1  0
 52 37  1  0
 54 38  1  0
 57 39  1  0
 58 39  1  0
 61 40  1  0
 62 40  1  0
 64 41  1  0
 68 42  1  0
 69 43  1  0
 71 43  1  0
 73 45  1  0
 75 47  1  0
M  END
>  <Energy>  (2) 
-2017.302315

$$$$
