124_cs_CONF_0001.xyz
     RDKit          3D

 45 46  0  0  0  0  0  0  0  0999 V2000
    1.1815   -0.2277   -2.1254 C   0  0  0  0  0  3  0  0  0  0  0  0
    1.2966    1.0347   -1.4768 C   0  0  0  0  0  0  0  0  0  0  0  0
    2.1226    1.1621   -0.3239 C   0  0  0  0  0  3  0  0  0  0  0  0
    0.6144    1.8492   -1.7493 H   0  0  0  0  0  0  0  0  0  0  0  0
    0.5862   -0.4139    0.0124 Pd  0  0  0  0  0  1  0  0  0  0  0  0
    0.2075   -0.3165    2.3027 P   0  0  0  0  0  0  0  0  0  0  0  0
   -1.0042   -2.1073   -0.0167 P   0  0  0  0  0  0  0  0  0  0  0  0
    2.0451   -0.9072   -2.0438 H   0  0  0  0  0  0  0  0  0  0  0  0
    2.9804    0.4743   -0.2508 H   0  0  0  0  0  0  0  0  0  0  0  0
   -1.5174   -1.2379   -5.3172 C   0  0  0  0  0  0  0  0  0  0  0  0
   -0.3628   -2.0008   -5.0874 C   0  0  0  0  0  0  0  0  0  0  0  0
    0.5059   -1.6606   -4.0432 C   0  0  0  0  0  0  0  0  0  0  0  0
    0.2387   -0.5473   -3.2137 C   0  0  0  0  0  0  0  0  0  0  0  0
   -0.9345    0.2079   -3.4513 C   0  0  0  0  0  0  0  0  0  0  0  0
   -1.8004   -0.1337   -4.4944 C   0  0  0  0  0  0  0  0  0  0  0  0
   -2.1971   -1.5015   -6.1338 H   0  0  0  0  0  0  0  0  0  0  0  0
   -0.1354   -2.8602   -5.7262 H   0  0  0  0  0  0  0  0  0  0  0  0
    1.4106   -2.2552   -3.8716 H   0  0  0  0  0  0  0  0  0  0  0  0
   -1.1792    1.0610   -2.8090 H   0  0  0  0  0  0  0  0  0  0  0  0
   -2.7024    0.4619   -4.6685 H   0  0  0  0  0  0  0  0  0  0  0  0
    2.4394    4.5935    2.2482 C   0  0  0  0  0  0  0  0  0  0  0  0
    3.4494    3.6202    2.2248 C   0  0  0  0  0  0  0  0  0  0  0  0
    3.3314    2.5078    1.3826 C   0  0  0  0  0  0  0  0  0  0  0  0
    2.2036    2.3515    0.5445 C   0  0  0  0  0  0  0  0  0  0  0  0
    1.1882    3.3364    0.5851 C   0  0  0  0  0  0  0  0  0  0  0  0
    1.3084    4.4465    1.4264 C   0  0  0  0  0  0  0  0  0  0  0  0
    2.5305    5.4647    2.9049 H   0  0  0  0  0  0  0  0  0  0  0  0
    4.3340    3.7302    2.8603 H   0  0  0  0  0  0  0  0  0  0  0  0
    4.1262    1.7533    1.3619 H   0  0  0  0  0  0  0  0  0  0  0  0
    0.2925    3.2292   -0.0364 H   0  0  0  0  0  0  0  0  0  0  0  0
    0.5166    5.2024    1.4444 H   0  0  0  0  0  0  0  0  0  0  0  0
   -1.7252   -2.2575    1.6745 C   0  0  0  0  0  0  0  0  0  0  0  0
   -1.1839   -1.4565    2.7112 C   0  0  0  0  0  0  0  0  0  0  0  0
   -2.7876   -3.1384    1.9563 C   0  0  0  0  0  0  0  0  0  0  0  0
   -1.7139   -1.5491    4.0130 C   0  0  0  0  0  0  0  0  0  0  0  0
   -3.3062   -3.2223    3.2545 C   0  0  0  0  0  0  0  0  0  0  0  0
   -2.7702   -2.4287    4.2814 C   0  0  0  0  0  0  0  0  0  0  0  0
   -3.2127   -3.7610    1.1616 H   0  0  0  0  0  0  0  0  0  0  0  0
   -1.3028   -0.9335    4.8204 H   0  0  0  0  0  0  0  0  0  0  0  0
   -4.1318   -3.9091    3.4659 H   0  0  0  0  0  0  0  0  0  0  0  0
   -3.1769   -2.4951    5.2953 H   0  0  0  0  0  0  0  0  0  0  0  0
   -0.6570   -3.4441   -0.3476 H   0  0  0  0  0  0  0  0  0  0  0  0
   -2.1382   -1.9642   -0.8591 H   0  0  0  0  0  0  0  0  0  0  0  0
    1.2156   -0.6779    3.2356 H   0  0  0  0  0  0  0  0  0  0  0  0
   -0.1854    0.9206    2.8781 H   0  0  0  0  0  0  0  0  0  0  0  0
  1  8  1  0
  1  2  1  0
  2  3  1  0
  2  5  1  0
  3  9  1  0
  3 24  1  0
  4  2  1  0
  6 33  1  0
  6 45  1  0
  6 44  1  0
  7 32  1  0
 10 11  2  0
 10 15  1  0
 11 12  1  0
 12 18  1  0
 12 13  2  0
 13  1  1  0
 14 13  1  0
 14 19  1  0
 15 14  2  0
 16 10  1  0
 17 11  1  0
 20 15  1  0
 21 27  1  0
 22 21  1  0
 22 28  1  0
 23 22  2  0
 24 25  2  0
 24 23  1  0
 25 26  1  0
 26 31  1  0
 26 21  2  0
 29 23  1  0
 30 25  1  0
 32 34  2  0
 32 33  1  0
 33 35  2  0
 34 36  1  0
 35 37  1  0
 35 39  1  0
 36 40  1  0
 36 37  2  0
 37 41  1  0
 38 34  1  0
 42  7  1  0
 43  7  1  0
M  END
>  <Energy>  (1) 
-1623.878166

$$$$
124_cs_CONF_0002.xyz
     RDKit          3D

 45 46  0  0  0  0  0  0  0  0999 V2000
    0.4886    2.3805   -0.2900 C   0  0  0  0  0  3  0  0  0  0  0  0
    0.6132    1.5665   -1.4516 C   0  0  0  0  0  0  0  0  0  0  0  0
   -0.5577    1.1017   -2.1154 C   0  0  0  0  0  3  0  0  0  0  0  0
    1.5916    1.1501   -1.7207 H   0  0  0  0  0  0  0  0  0  0  0  0
   -0.5820    0.4519    0.0147 Pd  0  0  0  0  0  1  0  0  0  0  0  0
   -1.7457   -1.5581   -0.0451 P   0  0  0  0  0  0  0  0  0  0  0  0
   -0.3896    0.0868    2.3010 P   0  0  0  0  0  0  0  0  0  0  0  0
   -0.4174    3.0032   -0.2166 H   0  0  0  0  0  0  0  0  0  0  0  0
   -1.4572    1.7327   -2.0328 H   0  0  0  0  0  0  0  0  0  0  0  0
    3.6583    3.6334    2.3317 C   0  0  0  0  0  0  0  0  0  0  0  0
    3.8537    2.5246    1.4901 C   0  0  0  0  0  0  0  0  0  0  0  0
    2.8338    2.1028    0.6319 C   0  0  0  0  0  0  0  0  0  0  0  0
    1.5964    2.7884    0.5940 C   0  0  0  0  0  0  0  0  0  0  0  0
    1.4109    3.8970    1.4515 C   0  0  0  0  0  0  0  0  0  0  0  0
    2.4335    4.3171    2.3107 C   0  0  0  0  0  0  0  0  0  0  0  0
    4.4596    3.9613    3.0017 H   0  0  0  0  0  0  0  0  0  0  0  0
    4.8072    1.9867    1.5058 H   0  0  0  0  0  0  0  0  0  0  0  0
    2.9978    1.2268   -0.0051 H   0  0  0  0  0  0  0  0  0  0  0  0
    0.4580    4.4383    1.4329 H   0  0  0  0  0  0  0  0  0  0  0  0
    2.2759    5.1832    2.9614 H   0  0  0  0  0  0  0  0  0  0  0  0
   -0.7313   -1.7397   -5.3384 C   0  0  0  0  0  0  0  0  0  0  0  0
   -1.7995   -0.8625   -5.0985 C   0  0  0  0  0  0  0  0  0  0  0  0
   -1.7286    0.0568   -4.0448 C   0  0  0  0  0  0  0  0  0  0  0  0
   -0.5857    0.1193   -3.2151 C   0  0  0  0  0  0  0  0  0  0  0  0
    0.4807   -0.7774   -3.4631 C   0  0  0  0  0  0  0  0  0  0  0  0
    0.4078   -1.6942   -4.5160 C   0  0  0  0  0  0  0  0  0  0  0  0
   -0.7843   -2.4582   -6.1626 H   0  0  0  0  0  0  0  0  0  0  0  0
   -2.6881   -0.8907   -5.7373 H   0  0  0  0  0  0  0  0  0  0  0  0
   -2.5625    0.7453   -3.8655 H   0  0  0  0  0  0  0  0  0  0  0  0
    1.3688   -0.7675   -2.8218 H   0  0  0  0  0  0  0  0  0  0  0  0
    1.2420   -2.3796   -4.6978 H   0  0  0  0  0  0  0  0  0  0  0  0
   -1.0471   -1.5951    2.6765 C   0  0  0  0  0  0  0  0  0  0  0  0
   -1.6538   -2.3305    1.6275 C   0  0  0  0  0  0  0  0  0  0  0  0
   -0.9605   -2.1591    3.9643 C   0  0  0  0  0  0  0  0  0  0  0  0
   -2.1642   -3.6181    1.8830 C   0  0  0  0  0  0  0  0  0  0  0  0
   -1.4711   -3.4405    4.2065 C   0  0  0  0  0  0  0  0  0  0  0  0
   -2.0721   -4.1689    3.1674 C   0  0  0  0  0  0  0  0  0  0  0  0
   -0.4926   -1.5988    4.7810 H   0  0  0  0  0  0  0  0  0  0  0  0
   -2.6341   -4.1944    1.0787 H   0  0  0  0  0  0  0  0  0  0  0  0
   -1.3991   -3.8730    5.2094 H   0  0  0  0  0  0  0  0  0  0  0  0
   -2.4698   -5.1706    3.3583 H   0  0  0  0  0  0  0  0  0  0  0  0
   -1.0538    0.9197    3.2404 H   0  0  0  0  0  0  0  0  0  0  0  0
    0.9029    0.0861    2.8886 H   0  0  0  0  0  0  0  0  0  0  0  0
   -3.1319   -1.5979   -0.3524 H   0  0  0  0  0  0  0  0  0  0  0  0
   -1.3013   -2.5854   -0.9186 H   0  0  0  0  0  0  0  0  0  0  0  0
  1  8  1  0
  1 13  1  0
  2  1  1  0
  2  5  1  0
  3  9  1  0
  3  2  1  0
  4  2  1  0
  6 33  1  0
  7 32  1  0
  7 43  1  0
  7 42  1  0
 10 16  1  0
 11 17  1  0
 11 10  2  0
 12 11  1  0
 13 12  2  0
 13 14  1  0
 14 15  2  0
 15 10  1  0
 15 20  1  0
 18 12  1  0
 19 14  1  0
 21 22  2  0
 21 26  1  0
 22 23  1  0
 23 29  1  0
 23 24  2  0
 24  3  1  0
 25 24  1  0
 25 30  1  0
 26 25  2  0
 27 21  1  0
 28 22  1  0
 31 26  1  0
 32 34  1  0
 33 35  1  0
 33 32  2  0
 34 36  2  0
 34 38  1  0
 35 37  2  0
 36 40  1  0
 37 41  1  0
 37 36  1  0
 39 35  1  0
 44  6  1  0
 45  6  1  0
M  END
>  <Energy>  (2) 
-1623.8781789999998

$$$$
