148_cs_CONF_0001.xyz
     RDKit          3D

 78 82  0  0  0  0  0  0  0  0999 V2000
    0.9769   -0.2732   -3.0170 C   0  0  0  0  0  3  0  0  0  0  0  0
    1.8529    0.6779   -2.4218 C   0  0  0  0  0  0  0  0  0  0  0  0
    2.6893    0.2806   -1.3386 C   0  0  0  0  0  3  0  0  0  0  0  0
    1.7460    1.7424   -2.6652 H   0  0  0  0  0  0  0  0  0  0  0  0
    0.5790   -0.0997   -0.8216 Pd  0  0  0  0  0  1  0  0  0  0  0  0
    0.4164    0.2490    1.4846 P   0  0  0  0  0  0  0  0  0  0  0  0
   -1.6458   -0.6013   -0.1977 P   0  0  0  0  0  0  0  0  0  0  0  0
    1.2928   -1.3278   -2.9845 H   0  0  0  0  0  0  0  0  0  0  0  0
    2.9965   -0.7775   -1.3198 H   0  0  0  0  0  0  0  0  0  0  0  0
   -2.0714    0.5330   -5.9455 C   0  0  0  0  0  0  0  0  0  0  0  0
   -1.5355   -0.7564   -5.8046 C   0  0  0  0  0  0  0  0  0  0  0  0
   -0.5402   -1.0030   -4.8504 C   0  0  0  0  0  0  0  0  0  0  0  0
   -0.0599    0.0345   -4.0182 C   0  0  0  0  0  0  0  0  0  0  0  0
   -0.6194    1.3259   -4.1633 C   0  0  0  0  0  0  0  0  0  0  0  0
   -1.6098    1.5716   -5.1191 C   0  0  0  0  0  0  0  0  0  0  0  0
   -2.8467    0.7287   -6.6933 H   0  0  0  0  0  0  0  0  0  0  0  0
   -1.8891   -1.5717   -6.4441 H   0  0  0  0  0  0  0  0  0  0  0  0
   -0.1222   -2.0109   -4.7480 H   0  0  0  0  0  0  0  0  0  0  0  0
   -0.2927    2.1406   -3.5082 H   0  0  0  0  0  0  0  0  0  0  0  0
   -2.0328    2.5768   -5.2153 H   0  0  0  0  0  0  0  0  0  0  0  0
    5.0839    2.7953    1.2002 C   0  0  0  0  0  0  0  0  0  0  0  0
    5.3117    1.4125    1.1388 C   0  0  0  0  0  0  0  0  0  0  0  0
    4.5270    0.6100    0.3027 C   0  0  0  0  0  0  0  0  0  0  0  0
    3.5009    1.1723   -0.4911 C   0  0  0  0  0  0  0  0  0  0  0  0
    3.2748    2.5657   -0.4076 C   0  0  0  0  0  0  0  0  0  0  0  0
    4.0623    3.3666    0.4243 C   0  0  0  0  0  0  0  0  0  0  0  0
    5.6956    3.4260    1.8532 H   0  0  0  0  0  0  0  0  0  0  0  0
    6.1064    0.9585    1.7398 H   0  0  0  0  0  0  0  0  0  0  0  0
    4.7146   -0.4689    0.2517 H   0  0  0  0  0  0  0  0  0  0  0  0
    2.4676    3.0267   -0.9864 H   0  0  0  0  0  0  0  0  0  0  0  0
    3.8707    4.4427    0.4785 H   0  0  0  0  0  0  0  0  0  0  0  0
   -1.4534    0.3135    1.4329 C   0  0  0  0  0  0  0  0  0  0  0  0
   -3.1678    0.0025   -0.9986 C   0  0  0  0  0  0  0  0  0  0  0  0
   -1.9523   -2.3394    0.2945 C   0  0  0  0  0  0  0  0  0  0  0  0
    0.8914   -1.1329    2.5754 C   0  0  0  0  0  0  0  0  0  0  0  0
    1.0341    1.7876    2.2479 C   0  0  0  0  0  0  0  0  0  0  0  0
   -4.1847    0.6743   -0.2876 C   0  0  0  0  0  0  0  0  0  0  0  0
   -3.2357   -2.7718    0.6875 C   0  0  0  0  0  0  0  0  0  0  0  0
    0.2356   -1.3773    3.7992 C   0  0  0  0  0  0  0  0  0  0  0  0
    0.5692    3.0293    1.7622 C   0  0  0  0  0  0  0  0  0  0  0  0
   -3.3138   -0.2297   -2.3827 C   0  0  0  0  0  0  0  0  0  0  0  0
   -0.8666   -3.2363    0.3373 C   0  0  0  0  0  0  0  0  0  0  0  0
    1.9459   -1.9738    2.1651 C   0  0  0  0  0  0  0  0  0  0  0  0
    2.0391    1.7541    3.2346 C   0  0  0  0  0  0  0  0  0  0  0  0
   -5.3396    1.1013   -0.9579 C   0  0  0  0  0  0  0  0  0  0  0  0
   -3.4198   -4.0863    1.1359 C   0  0  0  0  0  0  0  0  0  0  0  0
    0.6240   -2.4639    4.5933 C   0  0  0  0  0  0  0  0  0  0  0  0
    1.0746    4.2220    2.2917 C   0  0  0  0  0  0  0  0  0  0  0  0
   -4.4719    0.1989   -3.0432 C   0  0  0  0  0  0  0  0  0  0  0  0
   -1.0553   -4.5468    0.7963 C   0  0  0  0  0  0  0  0  0  0  0  0
    2.3362   -3.0540    2.9678 C   0  0  0  0  0  0  0  0  0  0  0  0
    2.5515    2.9536    3.7472 C   0  0  0  0  0  0  0  0  0  0  0  0
   -5.4837    0.8638   -2.3337 C   0  0  0  0  0  0  0  0  0  0  0  0
   -2.3309   -4.9714    1.1963 C   0  0  0  0  0  0  0  0  0  0  0  0
    1.6712   -3.3024    4.1781 C   0  0  0  0  0  0  0  0  0  0  0  0
    2.0669    4.1855    3.2845 C   0  0  0  0  0  0  0  0  0  0  0  0
   -1.7549    1.3663    1.2898 H   0  0  0  0  0  0  0  0  0  0  0  0
   -1.9888   -0.1095    2.2994 H   0  0  0  0  0  0  0  0  0  0  0  0
   -4.0857    0.8611    0.7872 H   0  0  0  0  0  0  0  0  0  0  0  0
   -4.0888   -2.0863    0.6357 H   0  0  0  0  0  0  0  0  0  0  0  0
   -0.5752   -0.7222    4.1358 H   0  0  0  0  0  0  0  0  0  0  0  0
   -0.1836    3.0683    0.9659 H   0  0  0  0  0  0  0  0  0  0  0  0
   -2.5220   -0.7357   -2.9448 H   0  0  0  0  0  0  0  0  0  0  0  0
    0.1267   -2.9027    0.0149 H   0  0  0  0  0  0  0  0  0  0  0  0
    2.4524   -1.7793    1.2130 H   0  0  0  0  0  0  0  0  0  0  0  0
    2.4172    0.7953    3.6034 H   0  0  0  0  0  0  0  0  0  0  0  0
   -6.1286    1.6196   -0.4032 H   0  0  0  0  0  0  0  0  0  0  0  0
   -4.4175   -4.4221    1.4368 H   0  0  0  0  0  0  0  0  0  0  0  0
    0.1091   -2.6564    5.5400 H   0  0  0  0  0  0  0  0  0  0  0  0
    0.7008    5.1824    1.9222 H   0  0  0  0  0  0  0  0  0  0  0  0
   -4.5740    0.0206   -4.1181 H   0  0  0  0  0  0  0  0  0  0  0  0
   -0.2065   -5.2371    0.8351 H   0  0  0  0  0  0  0  0  0  0  0  0
    3.1554   -3.7052    2.6462 H   0  0  0  0  0  0  0  0  0  0  0  0
    3.3313    2.9229    4.5148 H   0  0  0  0  0  0  0  0  0  0  0  0
   -6.3859    1.2019   -2.8538 H   0  0  0  0  0  0  0  0  0  0  0  0
   -2.4807   -5.9974    1.5479 H   0  0  0  0  0  0  0  0  0  0  0  0
    1.9699   -4.1511    4.8019 H   0  0  0  0  0  0  0  0  0  0  0  0
    2.4658    5.1194    3.6934 H   0  0  0  0  0  0  0  0  0  0  0  0
  1  8  1  0
  1  2  1  0
  2  3  1  0
  2  5  1  0
  3  9  1  0
  3 24  1  0
  4  2  1  0
  6 36  1  0
  6 35  1  0
  7 34  1  0
  7 32  1  0
 10 11  2  0
 10 15  1  0
 11 12  1  0
 12 18  1  0
 12 13  2  0
 13  1  1  0
 14 13  1  0
 14 19  1  0
 15 14  2  0
 16 10  1  0
 17 11  1  0
 20 15  1  0
 21 27  1  0
 22 21  1  0
 22 28  1  0
 23 22  2  0
 24 25  2  0
 24 23  1  0
 25 26  1  0
 26 31  1  0
 26 21  2  0
 29 23  1  0
 30 25  1  0
 32  6  1  0
 32 58  1  0
 33 37  1  0
 33  7  1  0
 34 42  2  0
 34 38  1  0
 35 39  1  0
 36 44  1  0
 37 59  1  0
 38 46  2  0
 39 61  1  0
 39 47  2  0
 40 36  2  0
 40 48  1  0
 41 33  2  0
 42 50  1  0
 43 35  2  0
 43 51  1  0
 44 66  1  0
 44 52  2  0
 45 67  1  0
 45 37  2  0
 46 54  1  0
 46 68  1  0
 47 69  1  0
 48 56  2  0
 49 41  1  0
 49 53  2  0
 50 72  1  0
 50 54  2  0
 51 55  2  0
 52 74  1  0
 53 45  1  0
 54 76  1  0
 55 47  1  0
 55 77  1  0
 56 78  1  0
 56 52  1  0
 57 32  1  0
 60 38  1  0
 62 40  1  0
 63 41  1  0
 64 42  1  0
 65 43  1  0
 70 48  1  0
 71 49  1  0
 73 51  1  0
 75 53  1  0
M  END
>  <Energy>  (1) 
-2356.797248

$$$$
148_cs_CONF_0002.xyz
     RDKit          3D

 78 82  0  0  0  0  0  0  0  0999 V2000
    1.0080   -0.8273   -2.7770 C   0  0  0  0  0  3  0  0  0  0  0  0
    1.8985    0.2006   -2.3461 C   0  0  0  0  0  0  0  0  0  0  0  0
    2.8076   -0.0373   -1.2802 C   0  0  0  0  0  3  0  0  0  0  0  0
    1.7123    1.2338   -2.6640 H   0  0  0  0  0  0  0  0  0  0  0  0
    0.7369   -0.4745   -0.6112 Pd  0  0  0  0  0  1  0  0  0  0  0  0
    0.5562   -0.1345    1.7056 P   0  0  0  0  0  0  0  0  0  0  0  0
   -1.4708   -0.9817   -0.0517 P   0  0  0  0  0  0  0  0  0  0  0  0
    1.3612   -1.8660   -2.6840 H   0  0  0  0  0  0  0  0  0  0  0  0
    3.1395   -1.0744   -1.1143 H   0  0  0  0  0  0  0  0  0  0  0  0
   -2.4154   -0.3895   -5.3538 C   0  0  0  0  0  0  0  0  0  0  0  0
   -1.9400   -1.6614   -4.9970 C   0  0  0  0  0  0  0  0  0  0  0  0
   -0.8165   -1.7847   -4.1714 C   0  0  0  0  0  0  0  0  0  0  0  0
   -0.1482   -0.6410   -3.6753 C   0  0  0  0  0  0  0  0  0  0  0  0
   -0.6482    0.6333   -4.0316 C   0  0  0  0  0  0  0  0  0  0  0  0
   -1.7624    0.7553   -4.8684 C   0  0  0  0  0  0  0  0  0  0  0  0
   -3.2883   -0.2907   -6.0073 H   0  0  0  0  0  0  0  0  0  0  0  0
   -2.4409   -2.5606   -5.3703 H   0  0  0  0  0  0  0  0  0  0  0  0
   -0.4476   -2.7807   -3.9027 H   0  0  0  0  0  0  0  0  0  0  0  0
   -0.1715    1.5401   -3.6461 H   0  0  0  0  0  0  0  0  0  0  0  0
   -2.1301    1.7512   -5.1358 H   0  0  0  0  0  0  0  0  0  0  0  0
    4.9593    2.9468    0.9535 C   0  0  0  0  0  0  0  0  0  0  0  0
    4.8919    1.6177    1.4024 C   0  0  0  0  0  0  0  0  0  0  0  0
    4.2241    0.6524    0.6424 C   0  0  0  0  0  0  0  0  0  0  0  0
    3.5922    0.9977   -0.5754 C   0  0  0  0  0  0  0  0  0  0  0  0
    3.6834    2.3342   -1.0258 C   0  0  0  0  0  0  0  0  0  0  0  0
    4.3619    3.2971   -0.2675 C   0  0  0  0  0  0  0  0  0  0  0  0
    5.4853    3.7027    1.5454 H   0  0  0  0  0  0  0  0  0  0  0  0
    5.3614    1.3315    2.3494 H   0  0  0  0  0  0  0  0  0  0  0  0
    4.1607   -0.3791    1.0071 H   0  0  0  0  0  0  0  0  0  0  0  0
    3.2322    2.6266   -1.9797 H   0  0  0  0  0  0  0  0  0  0  0  0
    4.4303    4.3261   -0.6358 H   0  0  0  0  0  0  0  0  0  0  0  0
   -1.1379   -0.9457    1.7954 C   0  0  0  0  0  0  0  0  0  0  0  0
   -2.6431    0.3509   -0.4567 C   0  0  0  0  0  0  0  0  0  0  0  0
   -2.2804   -2.5611   -0.4695 C   0  0  0  0  0  0  0  0  0  0  0  0
    1.6594   -0.9523    2.9111 C   0  0  0  0  0  0  0  0  0  0  0  0
    0.3512    1.5912    2.2570 C   0  0  0  0  0  0  0  0  0  0  0  0
   -2.8188    1.4731    0.3798 C   0  0  0  0  0  0  0  0  0  0  0  0
   -3.6626   -2.7646   -0.2724 C   0  0  0  0  0  0  0  0  0  0  0  0
    1.8280   -2.3525    2.8380 C   0  0  0  0  0  0  0  0  0  0  0  0
   -0.3800    1.9113    3.4214 C   0  0  0  0  0  0  0  0  0  0  0  0
   -3.2840    0.3061   -1.7148 C   0  0  0  0  0  0  0  0  0  0  0  0
   -1.4808   -3.6026   -0.9824 C   0  0  0  0  0  0  0  0  0  0  0  0
    2.4314   -0.2013    3.8204 C   0  0  0  0  0  0  0  0  0  0  0  0
    0.9469    2.6158    1.4954 C   0  0  0  0  0  0  0  0  0  0  0  0
   -3.6497    2.5248   -0.0293 C   0  0  0  0  0  0  0  0  0  0  0  0
   -4.2319   -4.0059   -0.5841 C   0  0  0  0  0  0  0  0  0  0  0  0
    2.7362   -2.9945    3.6880 C   0  0  0  0  0  0  0  0  0  0  0  0
   -0.5231    3.2505    3.8065 C   0  0  0  0  0  0  0  0  0  0  0  0
   -4.1139    1.3614   -2.1119 C   0  0  0  0  0  0  0  0  0  0  0  0
   -2.0570   -4.8431   -1.2887 C   0  0  0  0  0  0  0  0  0  0  0  0
    3.3457   -0.8519    4.6621 C   0  0  0  0  0  0  0  0  0  0  0  0
    0.8088    3.9527    1.8938 C   0  0  0  0  0  0  0  0  0  0  0  0
   -4.3004    2.4699   -1.2714 C   0  0  0  0  0  0  0  0  0  0  0  0
   -3.4315   -5.0433   -1.0903 C   0  0  0  0  0  0  0  0  0  0  0  0
    3.4968   -2.2447    4.6007 C   0  0  0  0  0  0  0  0  0  0  0  0
    0.0700    4.2704    3.0428 C   0  0  0  0  0  0  0  0  0  0  0  0
   -1.8936   -0.4594    2.4363 H   0  0  0  0  0  0  0  0  0  0  0  0
   -1.0146   -1.9925    2.1249 H   0  0  0  0  0  0  0  0  0  0  0  0
   -2.3067    1.5418    1.3445 H   0  0  0  0  0  0  0  0  0  0  0  0
   -4.2899   -1.9535    0.1129 H   0  0  0  0  0  0  0  0  0  0  0  0
    1.2557   -2.9437    2.1125 H   0  0  0  0  0  0  0  0  0  0  0  0
   -0.8308    1.1194    4.0303 H   0  0  0  0  0  0  0  0  0  0  0  0
   -3.1335   -0.5490   -2.3832 H   0  0  0  0  0  0  0  0  0  0  0  0
   -0.4104   -3.4310   -1.1465 H   0  0  0  0  0  0  0  0  0  0  0  0
    2.3207    0.8866    3.8694 H   0  0  0  0  0  0  0  0  0  0  0  0
    1.5239    2.3644    0.5996 H   0  0  0  0  0  0  0  0  0  0  0  0
   -3.7874    3.3898    0.6276 H   0  0  0  0  0  0  0  0  0  0  0  0
   -5.3046   -4.1645   -0.4327 H   0  0  0  0  0  0  0  0  0  0  0  0
    2.8562   -4.0814    3.6345 H   0  0  0  0  0  0  0  0  0  0  0  0
   -1.0933    3.4995    4.7074 H   0  0  0  0  0  0  0  0  0  0  0  0
   -4.6106    1.3168   -3.0864 H   0  0  0  0  0  0  0  0  0  0  0  0
   -1.4353   -5.6504   -1.6890 H   0  0  0  0  0  0  0  0  0  0  0  0
    3.9394   -0.2653    5.3707 H   0  0  0  0  0  0  0  0  0  0  0  0
    1.2793    4.7445    1.3023 H   0  0  0  0  0  0  0  0  0  0  0  0
   -4.9504    3.2929   -1.5856 H   0  0  0  0  0  0  0  0  0  0  0  0
   -3.8832   -6.0103   -1.3347 H   0  0  0  0  0  0  0  0  0  0  0  0
    4.2100   -2.7483    5.2613 H   0  0  0  0  0  0  0  0  0  0  0  0
   -0.0429    5.3155    3.3496 H   0  0  0  0  0  0  0  0  0  0  0  0
  1  8  1  0
  1  2  1  0
  2  3  1  0
  2  5  1  0
  3  9  1  0
  3 24  1  0
  4  2  1  0
  6 32  1  0
  6 36  1  0
  6 35  1  0
  7 32  1  0
 10 11  2  0
 10 15  1  0
 11 12  1  0
 12 18  1  0
 12 13  2  0
 13  1  1  0
 14 13  1  0
 14 19  1  0
 15 14  2  0
 16 10  1  0
 17 11  1  0
 20 15  1  0
 21 22  1  0
 21 27  1  0
 22 28  1  0
 23 29  1  0
 23 22  2  0
 24 23  1  0
 25 24  2  0
 25 26  1  0
 26 21  2  0
 30 25  1  0
 31 26  1  0
 32 58  1  0
 32 57  1  0
 33  7  1  0
 33 37  1  0
 34 38  1  0
 34  7  1  0
 35 43  1  0
 36 40  1  0
 37 59  1  0
 38 60  1  0
 39 35  2  0
 39 47  1  0
 40 48  2  0
 40 62  1  0
 41 33  2  0
 42 34  2  0
 43 65  1  0
 43 51  2  0
 44 52  1  0
 44 36  2  0
 45 37  2  0
 45 67  1  0
 46 68  1  0
 46 38  2  0
 47 55  2  0
 48 70  1  0
 49 41  1  0
 49 53  2  0
 50 54  2  0
 50 42  1  0
 51 73  1  0
 52 56  2  0
 53 45  1  0
 54 46  1  0
 55 51  1  0
 55 77  1  0
 56 78  1  0
 56 48  1  0
 61 39  1  0
 63 41  1  0
 64 42  1  0
 66 44  1  0
 69 47  1  0
 71 49  1  0
 72 50  1  0
 74 52  1  0
 75 53  1  0
 76 54  1  0
M  END
>  <Energy>  (2) 
-2356.797566

$$$$
148_cs_CONF_0003.xyz
     RDKit          3D

 78 82  0  0  0  0  0  0  0  0999 V2000
    1.0109   -0.7473   -2.8111 C   0  0  0  0  0  3  0  0  0  0  0  0
    1.9075    0.2466   -2.3337 C   0  0  0  0  0  0  0  0  0  0  0  0
    2.7958   -0.0437   -1.2559 C   0  0  0  0  0  3  0  0  0  0  0  0
    1.7424    1.2922   -2.6211 H   0  0  0  0  0  0  0  0  0  0  0  0
    0.7165   -0.4585   -0.6308 Pd  0  0  0  0  0  1  0  0  0  0  0  0
    0.5573   -0.1458    1.6760 P   0  0  0  0  0  0  0  0  0  0  0  0
   -1.4935   -0.9969   -0.0493 P   0  0  0  0  0  0  0  0  0  0  0  0
    1.3064   -1.8014   -2.6891 H   0  0  0  0  0  0  0  0  0  0  0  0
    3.1513   -1.0819   -1.1670 H   0  0  0  0  0  0  0  0  0  0  0  0
   -2.4337   -0.1020   -5.3091 C   0  0  0  0  0  0  0  0  0  0  0  0
   -2.2339   -1.3300   -4.6573 C   0  0  0  0  0  0  0  0  0  0  0  0
   -1.0871   -1.5363   -3.8842 C   0  0  0  0  0  0  0  0  0  0  0  0
   -0.1230   -0.5124   -3.7289 C   0  0  0  0  0  0  0  0  0  0  0  0
   -0.3263    0.7121   -4.4047 C   0  0  0  0  0  0  0  0  0  0  0  0
   -1.4705    0.9121   -5.1880 C   0  0  0  0  0  0  0  0  0  0  0  0
   -3.3286    0.0595   -5.9185 H   0  0  0  0  0  0  0  0  0  0  0  0
   -2.9749   -2.1306   -4.7509 H   0  0  0  0  0  0  0  0  0  0  0  0
   -0.9458   -2.4907   -3.3646 H   0  0  0  0  0  0  0  0  0  0  0  0
    0.4163    1.5132   -4.3299 H   0  0  0  0  0  0  0  0  0  0  0  0
   -1.6077    1.8637   -5.7121 H   0  0  0  0  0  0  0  0  0  0  0  0
    5.0823    2.7693    1.0705 C   0  0  0  0  0  0  0  0  0  0  0  0
    5.2751    1.3863    1.2177 C   0  0  0  0  0  0  0  0  0  0  0  0
    4.5363    0.4879    0.4395 C   0  0  0  0  0  0  0  0  0  0  0  0
    3.5791    0.9490   -0.4945 C   0  0  0  0  0  0  0  0  0  0  0  0
    3.3871    2.3446   -0.6220 C   0  0  0  0  0  0  0  0  0  0  0  0
    4.1376    3.2422    0.1450 C   0  0  0  0  0  0  0  0  0  0  0  0
    5.6662    3.4743    1.6711 H   0  0  0  0  0  0  0  0  0  0  0  0
    6.0096    1.0065    1.9353 H   0  0  0  0  0  0  0  0  0  0  0  0
    4.6968   -0.5895    0.5561 H   0  0  0  0  0  0  0  0  0  0  0  0
    2.6412    2.7373   -1.3202 H   0  0  0  0  0  0  0  0  0  0  0  0
    3.9779    4.3188    0.0261 H   0  0  0  0  0  0  0  0  0  0  0  0
   -1.1150   -0.9894    1.7931 C   0  0  0  0  0  0  0  0  0  0  0  0
   -2.7578    0.2819   -0.3467 C   0  0  0  0  0  0  0  0  0  0  0  0
   -2.2409   -2.6060   -0.4863 C   0  0  0  0  0  0  0  0  0  0  0  0
    1.6895   -0.9160    2.8802 C   0  0  0  0  0  0  0  0  0  0  0  0
    0.3681    1.6011    2.1504 C   0  0  0  0  0  0  0  0  0  0  0  0
   -3.8824    0.4221    0.4950 C   0  0  0  0  0  0  0  0  0  0  0  0
   -1.4881   -3.7781   -0.2543 C   0  0  0  0  0  0  0  0  0  0  0  0
    2.5481   -1.9367    2.4237 C   0  0  0  0  0  0  0  0  0  0  0  0
   -0.8829    2.2523    2.1495 C   0  0  0  0  0  0  0  0  0  0  0  0
   -2.5976    1.1357   -1.4560 C   0  0  0  0  0  0  0  0  0  0  0  0
   -3.4814   -2.6904   -1.1491 C   0  0  0  0  0  0  0  0  0  0  0  0
    1.7091   -0.5326    4.2377 C   0  0  0  0  0  0  0  0  0  0  0  0
    1.5458    2.3430    2.3936 C   0  0  0  0  0  0  0  0  0  0  0  0
   -4.8283    1.4213    0.2316 C   0  0  0  0  0  0  0  0  0  0  0  0
   -1.9872   -5.0229   -0.6551 C   0  0  0  0  0  0  0  0  0  0  0  0
    3.4141   -2.5776    3.3200 C   0  0  0  0  0  0  0  0  0  0  0  0
   -0.9540    3.6267    2.4149 C   0  0  0  0  0  0  0  0  0  0  0  0
   -3.5540    2.1262   -1.7187 C   0  0  0  0  0  0  0  0  0  0  0  0
   -3.9702   -3.9411   -1.5553 C   0  0  0  0  0  0  0  0  0  0  0  0
    2.5808   -1.1745    5.1267 C   0  0  0  0  0  0  0  0  0  0  0  0
    1.4625    3.7148    2.6596 C   0  0  0  0  0  0  0  0  0  0  0  0
   -4.6637    2.2734   -0.8735 C   0  0  0  0  0  0  0  0  0  0  0  0
   -3.2289   -5.1054   -1.3075 C   0  0  0  0  0  0  0  0  0  0  0  0
    3.4307   -2.1952    4.6701 C   0  0  0  0  0  0  0  0  0  0  0  0
    0.2151    4.3585    2.6728 C   0  0  0  0  0  0  0  0  0  0  0  0
   -1.8664   -0.5390    2.4647 H   0  0  0  0  0  0  0  0  0  0  0  0
   -0.9299   -2.0294    2.1154 H   0  0  0  0  0  0  0  0  0  0  0  0
   -4.0256   -0.2496    1.3492 H   0  0  0  0  0  0  0  0  0  0  0  0
   -0.5061   -3.7180    0.2315 H   0  0  0  0  0  0  0  0  0  0  0  0
    2.5387   -2.2168    1.3634 H   0  0  0  0  0  0  0  0  0  0  0  0
   -1.8037    1.7021    1.9333 H   0  0  0  0  0  0  0  0  0  0  0  0
   -1.7309    1.0182   -2.1149 H   0  0  0  0  0  0  0  0  0  0  0  0
   -4.0614   -1.7842   -1.3502 H   0  0  0  0  0  0  0  0  0  0  0  0
    1.0534    0.2695    4.5932 H   0  0  0  0  0  0  0  0  0  0  0  0
    2.5246    1.8508    2.3734 H   0  0  0  0  0  0  0  0  0  0  0  0
   -5.6988    1.5323    0.8863 H   0  0  0  0  0  0  0  0  0  0  0  0
   -1.4039   -5.9299   -0.4662 H   0  0  0  0  0  0  0  0  0  0  0  0
    4.0817   -3.3689    2.9639 H   0  0  0  0  0  0  0  0  0  0  0  0
   -1.9287    4.1252    2.4188 H   0  0  0  0  0  0  0  0  0  0  0  0
   -3.4279    2.7832   -2.5851 H   0  0  0  0  0  0  0  0  0  0  0  0
   -4.9365   -4.0035   -2.0665 H   0  0  0  0  0  0  0  0  0  0  0  0
    2.5978   -0.8768    6.1802 H   0  0  0  0  0  0  0  0  0  0  0  0
    2.3794    4.2817    2.8505 H   0  0  0  0  0  0  0  0  0  0  0  0
   -5.4068    3.0517   -1.0760 H   0  0  0  0  0  0  0  0  0  0  0  0
   -3.6150   -6.0789   -1.6260 H   0  0  0  0  0  0  0  0  0  0  0  0
    4.1116   -2.6911    5.3695 H   0  0  0  0  0  0  0  0  0  0  0  0
    0.1543    5.4317    2.8807 H   0  0  0  0  0  0  0  0  0  0  0  0
  1  8  1  0
  1  2  1  0
  2  3  1  0
  2  5  1  0
  3  9  1  0
  3 24  1  0
  4  2  1  0
  6 32  1  0
  6 36  1  0
  6 35  1  0
  7 32  1  0
 10 15  2  0
 10 11  1  0
 11 12  2  0
 12 13  1  0
 12 18  1  0
 13  1  1  0
 14 19  1  0
 14 13  2  0
 15 14  1  0
 16 10  1  0
 17 11  1  0
 20 15  1  0
 21 22  1  0
 21 27  1  0
 22 28  1  0
 23 29  1  0
 23 22  2  0
 24 23  1  0
 25 24  2  0
 25 26  1  0
 26 21  2  0
 30 25  1  0
 31 26  1  0
 32 58  1  0
 32 57  1  0
 33  7  1  0
 33 37  1  0
 34 38  1  0
 34  7  1  0
 35 43  1  0
 36 44  1  0
 37 59  1  0
 38 60  1  0
 39 35  2  0
 39 47  1  0
 40 36  2  0
 40 48  1  0
 41 33  2  0
 42 34  2  0
 43 65  1  0
 43 51  2  0
 44 52  2  0
 45 37  2  0
 45 67  1  0
 46 68  1  0
 46 38  2  0
 47 55  2  0
 48 70  1  0
 48 56  2  0
 49 41  1  0
 49 53  2  0
 50 54  2  0
 50 42  1  0
 51 73  1  0
 52 56  1  0
 52 74  1  0
 53 45  1  0
 54 46  1  0
 55 51  1  0
 55 77  1  0
 56 78  1  0
 61 39  1  0
 62 40  1  0
 63 41  1  0
 64 42  1  0
 66 44  1  0
 69 47  1  0
 71 49  1  0
 72 50  1  0
 75 53  1  0
 76 54  1  0
M  END
>  <Energy>  (3) 
-2356.7975699999997

$$$$
148_cs_CONF_0004.xyz
     RDKit          3D

 78 82  0  0  0  0  0  0  0  0999 V2000
    1.1975   -0.9138   -2.8383 C   0  0  0  0  0  3  0  0  0  0  0  0
    2.0106    0.1560   -2.3691 C   0  0  0  0  0  0  0  0  0  0  0  0
    2.8830   -0.0507   -1.2609 C   0  0  0  0  0  3  0  0  0  0  0  0
    1.7978    1.1772   -2.7096 H   0  0  0  0  0  0  0  0  0  0  0  0
    0.8130   -0.5464   -0.6804 Pd  0  0  0  0  0  1  0  0  0  0  0  0
    0.5785   -0.3125    1.6468 P   0  0  0  0  0  0  0  0  0  0  0  0
   -1.4055   -1.0922   -0.1236 P   0  0  0  0  0  0  0  0  0  0  0  0
    1.5944   -1.9333   -2.7120 H   0  0  0  0  0  0  0  0  0  0  0  0
    3.2704   -1.0701   -1.1088 H   0  0  0  0  0  0  0  0  0  0  0  0
   -2.0971   -0.6824   -5.5974 C   0  0  0  0  0  0  0  0  0  0  0  0
   -1.3956   -1.8833   -5.4175 C   0  0  0  0  0  0  0  0  0  0  0  0
   -0.3195   -1.9416   -4.5222 C   0  0  0  0  0  0  0  0  0  0  0  0
    0.0854   -0.7964   -3.8001 C   0  0  0  0  0  0  0  0  0  0  0  0
   -0.6314    0.4087   -3.9919 C   0  0  0  0  0  0  0  0  0  0  0  0
   -1.7106    0.4634   -4.8785 C   0  0  0  0  0  0  0  0  0  0  0  0
   -2.9418   -0.6354   -6.2922 H   0  0  0  0  0  0  0  0  0  0  0  0
   -1.6889   -2.7804   -5.9724 H   0  0  0  0  0  0  0  0  0  0  0  0
    0.2178   -2.8853   -4.3778 H   0  0  0  0  0  0  0  0  0  0  0  0
   -0.3610    1.3033   -3.4208 H   0  0  0  0  0  0  0  0  0  0  0  0
   -2.2595    1.4019   -5.0080 H   0  0  0  0  0  0  0  0  0  0  0  0
    4.8606    2.9674    1.0882 C   0  0  0  0  0  0  0  0  0  0  0  0
    4.9522    1.6087    1.4319 C   0  0  0  0  0  0  0  0  0  0  0  0
    4.3343    0.6395    0.6349 C   0  0  0  0  0  0  0  0  0  0  0  0
    3.5935    1.0065   -0.5138 C   0  0  0  0  0  0  0  0  0  0  0  0
    3.5178    2.3769   -0.8538 C   0  0  0  0  0  0  0  0  0  0  0  0
    4.1494    3.3446   -0.0627 C   0  0  0  0  0  0  0  0  0  0  0  0
    5.3484    3.7270    1.7074 H   0  0  0  0  0  0  0  0  0  0  0  0
    5.5081    1.3025    2.3240 H   0  0  0  0  0  0  0  0  0  0  0  0
    4.4005   -0.4171    0.9164 H   0  0  0  0  0  0  0  0  0  0  0  0
    2.9653    2.6955   -1.7436 H   0  0  0  0  0  0  0  0  0  0  0  0
    4.0872    4.4002   -0.3470 H   0  0  0  0  0  0  0  0  0  0  0  0
   -0.9529   -1.3951    1.6704 C   0  0  0  0  0  0  0  0  0  0  0  0
   -2.4736    0.3955   -0.0892 C   0  0  0  0  0  0  0  0  0  0  0  0
   -2.4459   -2.4478   -0.7486 C   0  0  0  0  0  0  0  0  0  0  0  0
    1.8155   -0.9606    2.8208 C   0  0  0  0  0  0  0  0  0  0  0  0
    0.1051    1.3564    2.2013 C   0  0  0  0  0  0  0  0  0  0  0  0
   -3.7991    0.3135    0.3852 C   0  0  0  0  0  0  0  0  0  0  0  0
   -2.8876   -2.3378   -2.0864 C   0  0  0  0  0  0  0  0  0  0  0  0
    2.4975   -2.1461    2.4716 C   0  0  0  0  0  0  0  0  0  0  0  0
   -1.1108    1.6433    2.8514 C   0  0  0  0  0  0  0  0  0  0  0  0
   -1.9403    1.6417   -0.4725 C   0  0  0  0  0  0  0  0  0  0  0  0
   -2.7738   -3.5895    0.0095 C   0  0  0  0  0  0  0  0  0  0  0  0
    2.1482   -0.2808    4.0087 C   0  0  0  0  0  0  0  0  0  0  0  0
    1.0009    2.4034    1.8905 C   0  0  0  0  0  0  0  0  0  0  0  0
   -4.5726    1.4765    0.4912 C   0  0  0  0  0  0  0  0  0  0  0  0
   -3.6568   -3.3613   -2.6511 C   0  0  0  0  0  0  0  0  0  0  0  0
    3.4893   -2.6578    3.3167 C   0  0  0  0  0  0  0  0  0  0  0  0
   -1.4295    2.9677    3.1812 C   0  0  0  0  0  0  0  0  0  0  0  0
   -2.7185    2.8017   -0.3630 C   0  0  0  0  0  0  0  0  0  0  0  0
   -3.5467   -4.6087   -0.5659 C   0  0  0  0  0  0  0  0  0  0  0  0
    3.1516   -0.7935    4.8437 C   0  0  0  0  0  0  0  0  0  0  0  0
    0.6786    3.7221    2.2318 C   0  0  0  0  0  0  0  0  0  0  0  0
   -4.0321    2.7196    0.1216 C   0  0  0  0  0  0  0  0  0  0  0  0
   -3.9869   -4.4966   -1.8933 C   0  0  0  0  0  0  0  0  0  0  0  0
    3.8193   -1.9790    4.5017 C   0  0  0  0  0  0  0  0  0  0  0  0
   -0.5386    4.0065    2.8717 C   0  0  0  0  0  0  0  0  0  0  0  0
   -1.7238   -1.2076    2.4374 H   0  0  0  0  0  0  0  0  0  0  0  0
   -0.5852   -2.4330    1.7668 H   0  0  0  0  0  0  0  0  0  0  0  0
   -4.2249   -0.6566    0.6655 H   0  0  0  0  0  0  0  0  0  0  0  0
   -2.6316   -1.4548   -2.6828 H   0  0  0  0  0  0  0  0  0  0  0  0
    2.2599   -2.6584    1.5306 H   0  0  0  0  0  0  0  0  0  0  0  0
   -1.8223    0.8471    3.0889 H   0  0  0  0  0  0  0  0  0  0  0  0
   -0.9070    1.6984   -0.8351 H   0  0  0  0  0  0  0  0  0  0  0  0
   -2.4398   -3.6875    1.0478 H   0  0  0  0  0  0  0  0  0  0  0  0
    1.6312    0.6468    4.2752 H   0  0  0  0  0  0  0  0  0  0  0  0
    1.9444    2.1869    1.3784 H   0  0  0  0  0  0  0  0  0  0  0  0
   -5.6017    1.4132    0.8597 H   0  0  0  0  0  0  0  0  0  0  0  0
   -3.9942   -3.2712   -3.6886 H   0  0  0  0  0  0  0  0  0  0  0  0
    4.0142   -3.5799    3.0466 H   0  0  0  0  0  0  0  0  0  0  0  0
   -2.3798    3.1869    3.6780 H   0  0  0  0  0  0  0  0  0  0  0  0
   -2.2965    3.7694   -0.6521 H   0  0  0  0  0  0  0  0  0  0  0  0
   -3.8071   -5.4913    0.0273 H   0  0  0  0  0  0  0  0  0  0  0  0
    3.4108   -0.2637    5.7661 H   0  0  0  0  0  0  0  0  0  0  0  0
    1.3789    4.5280    1.9893 H   0  0  0  0  0  0  0  0  0  0  0  0
   -4.6412    3.6255    0.2070 H   0  0  0  0  0  0  0  0  0  0  0  0
   -4.5883   -5.2960   -2.3382 H   0  0  0  0  0  0  0  0  0  0  0  0
    4.6024   -2.3739    5.1569 H   0  0  0  0  0  0  0  0  0  0  0  0
   -0.7937    5.0397    3.1292 H   0  0  0  0  0  0  0  0  0  0  0  0
  1  8  1  0
  1  2  1  0
  2  3  1  0
  2  5  1  0
  3  9  1  0
  3 24  1  0
  4  2  1  0
  6 32  1  0
  6 36  1  0
  6 35  1  0
  7 33  1  0
  7 32  1  0
 10 11  2  0
 10 15  1  0
 11 12  1  0
 12 18  1  0
 12 13  2  0
 13  1  1  0
 14 13  1  0
 14 19  1  0
 15 14  2  0
 16 10  1  0
 17 11  1  0
 20 15  1  0
 21 22  1  0
 21 27  1  0
 22 28  1  0
 23 29  1  0
 23 22  2  0
 24 23  1  0
 25 24  2  0
 25 26  1  0
 26 21  2  0
 30 25  1  0
 31 26  1  0
 32 58  1  0
 32 57  1  0
 33 37  1  0
 34  7  1  0
 34 42  1  0
 35 43  1  0
 36 40  1  0
 37 45  2  0
 37 59  1  0
 38 34  2  0
 39 35  2  0
 39 47  1  0
 40 62  1  0
 40 48  2  0
 41 49  1  0
 41 33  2  0
 42 64  1  0
 43 65  1  0
 43 51  2  0
 44 36  2  0
 44 52  1  0
 45 67  1  0
 46 38  1  0
 46 54  2  0
 47 55  2  0
 48 70  1  0
 49 53  2  0
 50 42  2  0
 50 72  1  0
 51 73  1  0
 52 56  2  0
 53 75  1  0
 53 45  1  0
 54 50  1  0
 55 51  1  0
 55 77  1  0
 56 78  1  0
 56 48  1  0
 60 38  1  0
 61 39  1  0
 63 41  1  0
 66 44  1  0
 68 46  1  0
 69 47  1  0
 71 49  1  0
 74 52  1  0
 76 54  1  0
M  END
>  <Energy>  (4) 
-2356.7978350000003

$$$$
148_cs_CONF_0005.xyz
     RDKit          3D

 78 82  0  0  0  0  0  0  0  0999 V2000
    1.1969   -1.0043   -2.7620 C   0  0  0  0  0  3  0  0  0  0  0  0
    1.9890    0.0929   -2.3243 C   0  0  0  0  0  0  0  0  0  0  0  0
    2.8636   -0.0691   -1.2085 C   0  0  0  0  0  3  0  0  0  0  0  0
    1.7673    1.0987   -2.7028 H   0  0  0  0  0  0  0  0  0  0  0  0
    0.7981   -0.5720   -0.6164 Pd  0  0  0  0  0  1  0  0  0  0  0  0
    0.5415   -0.2148    1.6897 P   0  0  0  0  0  0  0  0  0  0  0  0
   -1.4456   -1.0379   -0.0904 P   0  0  0  0  0  0  0  0  0  0  0  0
    1.6085   -2.0122   -2.5941 H   0  0  0  0  0  0  0  0  0  0  0  0
    3.2790   -1.0754   -1.0438 H   0  0  0  0  0  0  0  0  0  0  0  0
   -2.0810   -0.9332   -5.5488 C   0  0  0  0  0  0  0  0  0  0  0  0
   -1.3495   -2.1102   -5.3326 C   0  0  0  0  0  0  0  0  0  0  0  0
   -0.2787   -2.1163   -4.4292 C   0  0  0  0  0  0  0  0  0  0  0  0
    0.0912   -0.9417   -3.7360 C   0  0  0  0  0  0  0  0  0  0  0  0
   -0.6544    0.2390   -3.9657 C   0  0  0  0  0  0  0  0  0  0  0  0
   -1.7291    0.2413   -4.8594 C   0  0  0  0  0  0  0  0  0  0  0  0
   -2.9226   -0.9275   -6.2490 H   0  0  0  0  0  0  0  0  0  0  0  0
   -1.6153   -3.0291   -5.8653 H   0  0  0  0  0  0  0  0  0  0  0  0
    0.2817   -3.0415   -4.2555 H   0  0  0  0  0  0  0  0  0  0  0  0
   -0.4117    1.1550   -3.4170 H   0  0  0  0  0  0  0  0  0  0  0  0
   -2.3020    1.1610   -5.0162 H   0  0  0  0  0  0  0  0  0  0  0  0
    4.8959    3.0250    0.9921 C   0  0  0  0  0  0  0  0  0  0  0  0
    5.1337    1.6684    1.2673 C   0  0  0  0  0  0  0  0  0  0  0  0
    4.4801    0.6767    0.5271 C   0  0  0  0  0  0  0  0  0  0  0  0
    3.5646    1.0168   -0.4967 C   0  0  0  0  0  0  0  0  0  0  0  0
    3.3297    2.3871   -0.7571 C   0  0  0  0  0  0  0  0  0  0  0  0
    3.9944    3.3777   -0.0256 C   0  0  0  0  0  0  0  0  0  0  0  0
    5.4130    3.8023    1.5639 H   0  0  0  0  0  0  0  0  0  0  0  0
    5.8356    1.3824    2.0572 H   0  0  0  0  0  0  0  0  0  0  0  0
    4.6695   -0.3795    0.7484 H   0  0  0  0  0  0  0  0  0  0  0  0
    2.6206    2.6870   -1.5352 H   0  0  0  0  0  0  0  0  0  0  0  0
    3.8044    4.4329   -0.2479 H   0  0  0  0  0  0  0  0  0  0  0  0
   -1.0788   -1.1605    1.7442 C   0  0  0  0  0  0  0  0  0  0  0  0
   -2.4987    0.4483   -0.2874 C   0  0  0  0  0  0  0  0  0  0  0  0
   -2.4740   -2.4433   -0.6198 C   0  0  0  0  0  0  0  0  0  0  0  0
    1.6978   -0.9410    2.9004 C   0  0  0  0  0  0  0  0  0  0  0  0
    0.2376    1.5021    2.2133 C   0  0  0  0  0  0  0  0  0  0  0  0
   -3.8803    0.3945   -0.0074 C   0  0  0  0  0  0  0  0  0  0  0  0
   -2.8609   -2.4628   -1.9790 C   0  0  0  0  0  0  0  0  0  0  0  0
    2.5360   -1.9900    2.4688 C   0  0  0  0  0  0  0  0  0  0  0  0
    1.3592    2.3620    2.2400 C   0  0  0  0  0  0  0  0  0  0  0  0
   -1.9093    1.6676   -0.6768 C   0  0  0  0  0  0  0  0  0  0  0  0
   -2.8460   -3.5019    0.2323 C   0  0  0  0  0  0  0  0  0  0  0  0
    1.7699   -0.4828    4.2319 C   0  0  0  0  0  0  0  0  0  0  0  0
   -1.0432    2.0126    2.5026 C   0  0  0  0  0  0  0  0  0  0  0  0
   -4.6562    1.5569   -0.1057 C   0  0  0  0  0  0  0  0  0  0  0  0
   -3.6179   -3.5315   -2.4719 C   0  0  0  0  0  0  0  0  0  0  0  0
    3.4299   -2.5872    3.3672 C   0  0  0  0  0  0  0  0  0  0  0  0
    1.1950    3.7134    2.5628 C   0  0  0  0  0  0  0  0  0  0  0  0
   -2.6904    2.8270   -0.7719 C   0  0  0  0  0  0  0  0  0  0  0  0
   -3.6070   -4.5672   -0.2715 C   0  0  0  0  0  0  0  0  0  0  0  0
    2.6716   -1.0806    5.1226 C   0  0  0  0  0  0  0  0  0  0  0  0
   -1.1973    3.3689    2.8234 C   0  0  0  0  0  0  0  0  0  0  0  0
   -4.0625    2.7722   -0.4857 C   0  0  0  0  0  0  0  0  0  0  0  0
   -3.9914   -4.5841   -1.6205 C   0  0  0  0  0  0  0  0  0  0  0  0
    3.4984   -2.1309    4.6930 C   0  0  0  0  0  0  0  0  0  0  0  0
   -0.0825    4.2195    2.8535 C   0  0  0  0  0  0  0  0  0  0  0  0
   -1.8592   -0.8299    2.4511 H   0  0  0  0  0  0  0  0  0  0  0  0
   -0.7988   -2.2050    1.9722 H   0  0  0  0  0  0  0  0  0  0  0  0
   -4.3478   -0.5546    0.2779 H   0  0  0  0  0  0  0  0  0  0  0  0
   -2.5738   -1.6435   -2.6476 H   0  0  0  0  0  0  0  0  0  0  0  0
    2.4900   -2.3274    1.4260 H   0  0  0  0  0  0  0  0  0  0  0  0
    2.3582    1.9746    2.0112 H   0  0  0  0  0  0  0  0  0  0  0  0
   -0.8335    1.7042   -0.8879 H   0  0  0  0  0  0  0  0  0  0  0  0
   -2.5573   -3.4999    1.2886 H   0  0  0  0  0  0  0  0  0  0  0  0
    1.1312    0.3418    4.5661 H   0  0  0  0  0  0  0  0  0  0  0  0
   -1.9270    1.3690    2.4680 H   0  0  0  0  0  0  0  0  0  0  0  0
   -5.7287    1.5137    0.1103 H   0  0  0  0  0  0  0  0  0  0  0  0
   -3.9125   -3.5409   -3.5263 H   0  0  0  0  0  0  0  0  0  0  0  0
    4.0797   -3.4016    3.0312 H   0  0  0  0  0  0  0  0  0  0  0  0
    2.0697    4.3715    2.5810 H   0  0  0  0  0  0  0  0  0  0  0  0
   -2.2263    3.7731   -1.0682 H   0  0  0  0  0  0  0  0  0  0  0  0
   -3.9018   -5.3844    0.3948 H   0  0  0  0  0  0  0  0  0  0  0  0
    2.7295   -0.7243    6.1562 H   0  0  0  0  0  0  0  0  0  0  0  0
   -2.1952    3.7594    3.0473 H   0  0  0  0  0  0  0  0  0  0  0  0
   -4.6743    3.6769   -0.5637 H   0  0  0  0  0  0  0  0  0  0  0  0
   -4.5835   -5.4189   -2.0091 H   0  0  0  0  0  0  0  0  0  0  0  0
    4.2027   -2.5920    5.3931 H   0  0  0  0  0  0  0  0  0  0  0  0
   -0.2087    5.2780    3.1032 H   0  0  0  0  0  0  0  0  0  0  0  0
  1  8  1  0
  1  2  1  0
  2  3  1  0
  2  5  1  0
  3  9  1  0
  3 24  1  0
  4  2  1  0
  6 32  1  0
  6 36  1  0
  6 35  1  0
  7 32  1  0
 10 11  2  0
 10 15  1  0
 11 12  1  0
 12 18  1  0
 12 13  2  0
 13  1  1  0
 14 13  1  0
 14 19  1  0
 15 14  2  0
 16 10  1  0
 17 11  1  0
 20 15  1  0
 21 22  1  0
 21 27  1  0
 22 28  1  0
 23 29  1  0
 23 22  2  0
 24 23  1  0
 25 24  2  0
 25 26  1  0
 26 21  2  0
 30 25  1  0
 31 26  1  0
 32 58  1  0
 32 57  1  0
 33  7  1  0
 33 37  1  0
 34  7  1  0
 34 42  1  0
 35 43  1  0
 36 40  2  0
 36 44  1  0
 37 59  1  0
 38 34  2  0
 39 35  2  0
 39 47  1  0
 40 48  1  0
 41 33  2  0
 42 64  1  0
 43 65  1  0
 43 51  2  0
 44 52  2  0
 45 37  2  0
 45 67  1  0
 46 38  1  0
 46 54  2  0
 47 55  2  0
 48 70  1  0
 48 56  2  0
 49 41  1  0
 49 53  2  0
 50 42  2  0
 50 72  1  0
 51 73  1  0
 52 56  1  0
 52 74  1  0
 53 45  1  0
 54 50  1  0
 55 51  1  0
 55 77  1  0
 56 78  1  0
 60 38  1  0
 61 39  1  0
 62 40  1  0
 63 41  1  0
 66 44  1  0
 68 46  1  0
 69 47  1  0
 71 49  1  0
 75 53  1  0
 76 54  1  0
M  END
>  <Energy>  (5) 
-2356.798216

$$$$
148_cs_CONF_0006.xyz
     RDKit          3D

 78 82  0  0  0  0  0  0  0  0999 V2000
    1.0946   -0.8080   -2.7684 C   0  0  0  0  0  3  0  0  0  0  0  0
    1.9894    0.1775   -2.2706 C   0  0  0  0  0  0  0  0  0  0  0  0
    2.8374   -0.1143   -1.1616 C   0  0  0  0  0  3  0  0  0  0  0  0
    1.8509    1.2224   -2.5743 H   0  0  0  0  0  0  0  0  0  0  0  0
    0.7320   -0.4930   -0.6016 Pd  0  0  0  0  0  1  0  0  0  0  0  0
    0.5005   -0.1262    1.6911 P   0  0  0  0  0  0  0  0  0  0  0  0
   -1.5053   -0.9846   -0.0834 P   0  0  0  0  0  0  0  0  0  0  0  0
    1.3703   -1.8650   -2.6271 H   0  0  0  0  0  0  0  0  0  0  0  0
    3.1740   -1.1568   -1.0504 H   0  0  0  0  0  0  0  0  0  0  0  0
   -2.2460   -0.1381   -5.3985 C   0  0  0  0  0  0  0  0  0  0  0  0
   -1.2775    0.8665   -5.2443 C   0  0  0  0  0  0  0  0  0  0  0  0
   -0.1665    0.6582   -4.4170 C   0  0  0  0  0  0  0  0  0  0  0  0
   -0.0023   -0.5649   -3.7280 C   0  0  0  0  0  0  0  0  0  0  0  0
   -0.9711   -1.5788   -3.9153 C   0  0  0  0  0  0  0  0  0  0  0  0
   -2.0845   -1.3647   -4.7338 C   0  0  0  0  0  0  0  0  0  0  0  0
   -3.1147    0.0297   -6.0431 H   0  0  0  0  0  0  0  0  0  0  0  0
   -1.3843    1.8169   -5.7776 H   0  0  0  0  0  0  0  0  0  0  0  0
    0.5813    1.4518   -4.3178 H   0  0  0  0  0  0  0  0  0  0  0  0
   -0.8599   -2.5324   -3.3867 H   0  0  0  0  0  0  0  0  0  0  0  0
   -2.8292   -2.1585   -4.8534 H   0  0  0  0  0  0  0  0  0  0  0  0
    5.0974    2.6910    1.1993 C   0  0  0  0  0  0  0  0  0  0  0  0
    4.1768    3.1669    0.2514 C   0  0  0  0  0  0  0  0  0  0  0  0
    3.4347    2.2716   -0.5262 C   0  0  0  0  0  0  0  0  0  0  0  0
    3.6114    0.8752   -0.3867 C   0  0  0  0  0  0  0  0  0  0  0  0
    4.5434    0.4109    0.5707 C   0  0  0  0  0  0  0  0  0  0  0  0
    5.2740    1.3073    1.3591 C   0  0  0  0  0  0  0  0  0  0  0  0
    5.6752    3.3942    1.8078 H   0  0  0  0  0  0  0  0  0  0  0  0
    4.0291    4.2441    0.1233 H   0  0  0  0  0  0  0  0  0  0  0  0
    2.7064    2.6667   -1.2415 H   0  0  0  0  0  0  0  0  0  0  0  0
    4.6917   -0.6672    0.6967 H   0  0  0  0  0  0  0  0  0  0  0  0
    5.9898    0.9252    2.0942 H   0  0  0  0  0  0  0  0  0  0  0  0
   -1.1968   -0.9237    1.7703 C   0  0  0  0  0  0  0  0  0  0  0  0
   -2.7294    0.3134   -0.4598 C   0  0  0  0  0  0  0  0  0  0  0  0
   -2.2845   -2.5852   -0.4948 C   0  0  0  0  0  0  0  0  0  0  0  0
    1.5688   -0.8977    2.9514 C   0  0  0  0  0  0  0  0  0  0  0  0
    0.3370    1.6348    2.1219 C   0  0  0  0  0  0  0  0  0  0  0  0
   -2.4811    1.1828   -1.5400 C   0  0  0  0  0  0  0  0  0  0  0  0
   -3.4200   -2.6456   -1.3281 C   0  0  0  0  0  0  0  0  0  0  0  0
    1.5239   -0.5086    4.3068 C   0  0  0  0  0  0  0  0  0  0  0  0
   -0.8918    2.3206    2.0232 C   0  0  0  0  0  0  0  0  0  0  0  0
   -3.9080    0.4552    0.3044 C   0  0  0  0  0  0  0  0  0  0  0  0
   -1.6583   -3.7797   -0.0766 C   0  0  0  0  0  0  0  0  0  0  0  0
    2.4413   -1.9263    2.5419 C   0  0  0  0  0  0  0  0  0  0  0  0
    1.5167    2.3485    2.4297 C   0  0  0  0  0  0  0  0  0  0  0  0
   -3.4040    2.1913   -1.8512 C   0  0  0  0  0  0  0  0  0  0  0  0
   -3.9332   -3.8913   -1.7183 C   0  0  0  0  0  0  0  0  0  0  0  0
    2.3458   -1.1529    5.2404 C   0  0  0  0  0  0  0  0  0  0  0  0
   -0.9404    3.7016    2.2568 C   0  0  0  0  0  0  0  0  0  0  0  0
   -4.8199    1.4721   -0.0061 C   0  0  0  0  0  0  0  0  0  0  0  0
   -2.1826   -5.0187   -0.4635 C   0  0  0  0  0  0  0  0  0  0  0  0
    3.2580   -2.5690    3.4824 C   0  0  0  0  0  0  0  0  0  0  0  0
    1.4555    3.7275    2.6637 C   0  0  0  0  0  0  0  0  0  0  0  0
   -4.5675    2.3402   -1.0822 C   0  0  0  0  0  0  0  0  0  0  0  0
   -3.3202   -5.0761   -1.2857 C   0  0  0  0  0  0  0  0  0  0  0  0
    3.2102   -2.1813    4.8301 C   0  0  0  0  0  0  0  0  0  0  0  0
    0.2295    4.4058    2.5800 C   0  0  0  0  0  0  0  0  0  0  0  0
   -1.9625   -0.4237    2.3887 H   0  0  0  0  0  0  0  0  0  0  0  0
   -1.0565   -1.9530    2.1447 H   0  0  0  0  0  0  0  0  0  0  0  0
   -1.5728    1.0624   -2.1392 H   0  0  0  0  0  0  0  0  0  0  0  0
   -3.8999   -1.7240   -1.6722 H   0  0  0  0  0  0  0  0  0  0  0  0
    0.8570    0.2994    4.6266 H   0  0  0  0  0  0  0  0  0  0  0  0
   -1.8119    1.7919    1.7555 H   0  0  0  0  0  0  0  0  0  0  0  0
   -4.1182   -0.2292    1.1343 H   0  0  0  0  0  0  0  0  0  0  0  0
   -0.7563   -3.7462    0.5467 H   0  0  0  0  0  0  0  0  0  0  0  0
    2.4813   -2.2114    1.4838 H   0  0  0  0  0  0  0  0  0  0  0  0
    2.4799    1.8293    2.4841 H   0  0  0  0  0  0  0  0  0  0  0  0
   -3.2102    2.8603   -2.6956 H   0  0  0  0  0  0  0  0  0  0  0  0
   -4.8184   -3.9335   -2.3613 H   0  0  0  0  0  0  0  0  0  0  0  0
    2.3126   -0.8513    6.2923 H   0  0  0  0  0  0  0  0  0  0  0  0
   -1.8982    4.2270    2.1850 H   0  0  0  0  0  0  0  0  0  0  0  0
   -5.7323    1.5849    0.5884 H   0  0  0  0  0  0  0  0  0  0  0  0
   -1.6995   -5.9421   -0.1280 H   0  0  0  0  0  0  0  0  0  0  0  0
    3.9368   -3.3662    3.1628 H   0  0  0  0  0  0  0  0  0  0  0  0
    2.3735    4.2726    2.9059 H   0  0  0  0  0  0  0  0  0  0  0  0
   -5.2847    3.1321   -1.3221 H   0  0  0  0  0  0  0  0  0  0  0  0
   -3.7258   -6.0461   -1.5907 H   0  0  0  0  0  0  0  0  0  0  0  0
    3.8522   -2.6788    5.5643 H   0  0  0  0  0  0  0  0  0  0  0  0
    0.1862    5.4843    2.7634 H   0  0  0  0  0  0  0  0  0  0  0  0
  1  8  1  0
  1  2  1  0
  2  3  1  0
  2  5  1  0
  3  9  1  0
  3 24  1  0
  4  2  1  0
  6 32  1  0
  6 36  1  0
  6 35  1  0
  7 32  1  0
 10 11  2  0
 10 15  1  0
 11 12  1  0
 12 18  1  0
 12 13  2  0
 13  1  1  0
 14 13  1  0
 14 19  1  0
 15 14  2  0
 16 10  1  0
 17 11  1  0
 20 15  1  0
 21 26  1  0
 21 27  1  0
 22 21  2  0
 23 24  2  0
 23 22  1  0
 24 25  1  0
 25 30  1  0
 25 26  2  0
 26 31  1  0
 28 22  1  0
 29 23  1  0
 32 58  1  0
 32 57  1  0
 33  7  1  0
 33 41  1  0
 34  7  1  0
 34 42  1  0
 35 39  1  0
 36 44  1  0
 37 33  2  0
 38 34  2  0
 39 61  1  0
 39 47  2  0
 40 36  2  0
 40 48  1  0
 41 63  1  0
 42 64  1  0
 43 35  2  0
 43 51  1  0
 44 66  1  0
 44 52  2  0
 45 37  1  0
 45 53  2  0
 46 38  1  0
 46 54  2  0
 47 69  1  0
 48 56  2  0
 49 41  2  0
 49 71  1  0
 50 72  1  0
 50 42  2  0
 51 55  2  0
 52 74  1  0
 53 49  1  0
 54 50  1  0
 55 47  1  0
 55 77  1  0
 56 52  1  0
 56 78  1  0
 59 37  1  0
 60 38  1  0
 62 40  1  0
 65 43  1  0
 67 45  1  0
 68 46  1  0
 70 48  1  0
 73 51  1  0
 75 53  1  0
 76 54  1  0
M  END
>  <Energy>  (6) 
-2356.797567

$$$$
