149_cs_CONF_0001.xyz
     RDKit          3D

 64 66  0  0  0  0  0  0  0  0999 V2000
   -1.3744    0.9100   -1.5313 C   0  0  0  0  0  3  0  0  0  0  0  0
   -0.2369    0.3772   -2.2022 C   0  0  0  0  0  0  0  0  0  0  0  0
    0.1234   -0.9880   -2.0176 C   0  0  0  0  0  3  0  0  0  0  0  0
    0.4586    1.0570   -2.7116 H   0  0  0  0  0  0  0  0  0  0  0  0
    0.0849    0.0825   -0.0575 Pd  0  0  0  0  0  1  0  0  0  0  0  0
    1.7380   -1.1351    1.0295 P   0  0  0  0  0  0  0  0  0  0  0  0
   -0.3664    1.5234    1.7080 P   0  0  0  0  0  0  0  0  0  0  0  0
   -2.1913    0.2073   -1.3023 H   0  0  0  0  0  0  0  0  0  0  0  0
   -0.6929   -1.6909   -1.7873 H   0  0  0  0  0  0  0  0  0  0  0  0
   -2.5568    5.0445   -1.4220 C   0  0  0  0  0  0  0  0  0  0  0  0
   -1.1967    4.7145   -1.5508 C   0  0  0  0  0  0  0  0  0  0  0  0
   -0.7982    3.3745   -1.5915 C   0  0  0  0  0  0  0  0  0  0  0  0
   -1.7549    2.3357   -1.5077 C   0  0  0  0  0  0  0  0  0  0  0  0
   -3.1162    2.6820   -1.3641 C   0  0  0  0  0  0  0  0  0  0  0  0
   -3.5137    4.0239   -1.3269 C   0  0  0  0  0  0  0  0  0  0  0  0
   -2.8660    6.0943   -1.3904 H   0  0  0  0  0  0  0  0  0  0  0  0
   -0.4445    5.5075   -1.6183 H   0  0  0  0  0  0  0  0  0  0  0  0
    0.2675    3.1301   -1.6707 H   0  0  0  0  0  0  0  0  0  0  0  0
   -3.8675    1.8894   -1.2820 H   0  0  0  0  0  0  0  0  0  0  0  0
   -4.5741    4.2721   -1.2174 H   0  0  0  0  0  0  0  0  0  0  0  0
    3.7021   -2.8938   -3.4542 C   0  0  0  0  0  0  0  0  0  0  0  0
    3.7176   -1.5196   -3.1601 C   0  0  0  0  0  0  0  0  0  0  0  0
    2.5607   -0.8859   -2.6957 C   0  0  0  0  0  0  0  0  0  0  0  0
    1.3613   -1.6152   -2.5197 C   0  0  0  0  0  0  0  0  0  0  0  0
    1.3642   -2.9980   -2.8054 C   0  0  0  0  0  0  0  0  0  0  0  0
    2.5226   -3.6302   -3.2732 C   0  0  0  0  0  0  0  0  0  0  0  0
    4.6092   -3.3874   -3.8178 H   0  0  0  0  0  0  0  0  0  0  0  0
    4.6380   -0.9412   -3.2928 H   0  0  0  0  0  0  0  0  0  0  0  0
    2.5915    0.1821   -2.4502 H   0  0  0  0  0  0  0  0  0  0  0  0
    0.4482   -3.5799   -2.6588 H   0  0  0  0  0  0  0  0  0  0  0  0
    2.5042   -4.7026   -3.4913 H   0  0  0  0  0  0  0  0  0  0  0  0
    1.5298    0.3164    3.5085 C   0  0  0  0  0  0  0  0  0  0  0  0
    1.7042   -1.0884    2.8915 C   0  0  0  0  0  0  0  0  0  0  0  0
    0.1132    0.9221    3.4044 C   0  0  0  0  0  0  0  0  0  0  0  0
    1.9383   -2.8942    0.5949 C   0  0  0  0  0  0  0  0  0  0  0  0
   -2.0659    2.1592    1.8832 C   0  0  0  0  0  0  0  0  0  0  0  0
    0.7978   -3.7248    0.5874 C   0  0  0  0  0  0  0  0  0  0  0  0
   -3.1388    1.2434    1.8486 C   0  0  0  0  0  0  0  0  0  0  0  0
    3.1955   -3.4277    0.2508 C   0  0  0  0  0  0  0  0  0  0  0  0
   -2.3246    3.5358    2.0294 C   0  0  0  0  0  0  0  0  0  0  0  0
    0.9203   -5.0809    0.2601 C   0  0  0  0  0  0  0  0  0  0  0  0
   -4.4555    1.7011    1.9814 C   0  0  0  0  0  0  0  0  0  0  0  0
    3.3086   -4.7832   -0.0880 C   0  0  0  0  0  0  0  0  0  0  0  0
   -3.6460    3.9880    2.1492 C   0  0  0  0  0  0  0  0  0  0  0  0
    2.1761   -5.6103   -0.0783 C   0  0  0  0  0  0  0  0  0  0  0  0
   -4.7094    3.0740    2.1310 C   0  0  0  0  0  0  0  0  0  0  0  0
    1.7707    0.2327    4.5837 H   0  0  0  0  0  0  0  0  0  0  0  0
    2.2796    1.0164    3.0908 H   0  0  0  0  0  0  0  0  0  0  0  0
    2.6413   -1.5516    3.2466 H   0  0  0  0  0  0  0  0  0  0  0  0
    0.8786   -1.7550    3.2023 H   0  0  0  0  0  0  0  0  0  0  0  0
    0.0077    1.7764    4.0956 H   0  0  0  0  0  0  0  0  0  0  0  0
   -0.6506    0.1773    3.6956 H   0  0  0  0  0  0  0  0  0  0  0  0
    3.0321   -0.6204    0.7528 H   0  0  0  0  0  0  0  0  0  0  0  0
    0.3829    2.7252    1.6064 H   0  0  0  0  0  0  0  0  0  0  0  0
   -0.1875   -3.3084    0.8308 H   0  0  0  0  0  0  0  0  0  0  0  0
   -2.9437    0.1727    1.7106 H   0  0  0  0  0  0  0  0  0  0  0  0
    4.0831   -2.7866    0.2311 H   0  0  0  0  0  0  0  0  0  0  0  0
   -1.5008    4.2574    2.0342 H   0  0  0  0  0  0  0  0  0  0  0  0
    0.0347   -5.7246    0.2624 H   0  0  0  0  0  0  0  0  0  0  0  0
   -5.2854    0.9873    1.9611 H   0  0  0  0  0  0  0  0  0  0  0  0
    4.2858   -5.1915   -0.3645 H   0  0  0  0  0  0  0  0  0  0  0  0
   -3.8433    5.0598    2.2526 H   0  0  0  0  0  0  0  0  0  0  0  0
    2.2697   -6.6691   -0.3406 H   0  0  0  0  0  0  0  0  0  0  0  0
   -5.7397    3.4315    2.2276 H   0  0  0  0  0  0  0  0  0  0  0  0
  1 13  1  0
  1  8  1  0
  2  3  1  0
  2  1  1  0
  2  5  1  0
  3  9  1  0
  4  2  1  0
  6 33  1  0
  7 36  1  0
  7 34  1  0
 10 16  1  0
 10 15  1  0
 11 10  2  0
 12 11  1  0
 12 13  2  0
 13 14  1  0
 14 15  2  0
 14 19  1  0
 15 20  1  0
 17 11  1  0
 18 12  1  0
 21 26  2  0
 21 22  1  0
 22 23  2  0
 23 24  1  0
 23 29  1  0
 24  3  1  0
 25 30  1  0
 25 24  2  0
 26 25  1  0
 27 21  1  0
 28 22  1  0
 31 26  1  0
 32 47  1  0
 33 50  1  0
 33 49  1  0
 33 32  1  0
 34 32  1  0
 34 52  1  0
 34 51  1  0
 35  6  1  0
 36 40  1  0
 37 35  1  0
 37 55  1  0
 38 36  2  0
 38 42  1  0
 39 35  2  0
 40 58  1  0
 40 44  2  0
 41 59  1  0
 41 37  2  0
 42 46  2  0
 43 45  2  0
 43 39  1  0
 44 62  1  0
 45 41  1  0
 46 44  1  0
 46 64  1  0
 48 32  1  0
 53  6  1  0
 54  7  1  0
 56 38  1  0
 57 39  1  0
 60 42  1  0
 61 43  1  0
 63 45  1  0
M  END
>  <Energy>  (1) 
-1973.1024149999998

$$$$
149_cs_CONF_0002.xyz
     RDKit          3D

 64 66  0  0  0  0  0  0  0  0999 V2000
    1.1338   -0.1840   -2.0488 C   0  0  0  0  0  3  0  0  0  0  0  0
    0.0280    0.6317   -2.4246 C   0  0  0  0  0  0  0  0  0  0  0  0
   -0.3691    1.7091   -1.5816 C   0  0  0  0  0  3  0  0  0  0  0  0
   -0.6247    0.3154   -3.2475 H   0  0  0  0  0  0  0  0  0  0  0  0
   -0.4053   -0.2036   -0.4378 Pd  0  0  0  0  0  1  0  0  0  0  0  0
   -1.9838    0.4389    1.1323 P   0  0  0  0  0  0  0  0  0  0  0  0
    0.1513   -2.2672    0.4577 P   0  0  0  0  0  0  0  0  0  0  0  0
    1.9085    0.2902   -1.4254 H   0  0  0  0  0  0  0  0  0  0  0  0
    0.4171    2.1653   -0.9594 H   0  0  0  0  0  0  0  0  0  0  0  0
    2.4488   -3.8556   -3.8640 C   0  0  0  0  0  0  0  0  0  0  0  0
    1.1532   -3.3782   -4.1294 C   0  0  0  0  0  0  0  0  0  0  0  0
    0.7097   -2.1836   -3.5539 C   0  0  0  0  0  0  0  0  0  0  0  0
    1.5583   -1.4356   -2.7036 C   0  0  0  0  0  0  0  0  0  0  0  0
    2.8547   -1.9325   -2.4380 C   0  0  0  0  0  0  0  0  0  0  0  0
    3.2963   -3.1296   -3.0149 C   0  0  0  0  0  0  0  0  0  0  0  0
    2.7926   -4.7905   -4.3183 H   0  0  0  0  0  0  0  0  0  0  0  0
    0.4862   -3.9432   -4.7887 H   0  0  0  0  0  0  0  0  0  0  0  0
   -0.3083   -1.8355   -3.7593 H   0  0  0  0  0  0  0  0  0  0  0  0
    3.5178   -1.3738   -1.7679 H   0  0  0  0  0  0  0  0  0  0  0  0
    4.3056   -3.4951   -2.7996 H   0  0  0  0  0  0  0  0  0  0  0  0
   -3.9004    4.1474   -1.8796 C   0  0  0  0  0  0  0  0  0  0  0  0
   -3.8244    2.9490   -2.6107 C   0  0  0  0  0  0  0  0  0  0  0  0
   -2.6830    2.1451   -2.5317 C   0  0  0  0  0  0  0  0  0  0  0  0
   -1.5866    2.5292   -1.7241 C   0  0  0  0  0  0  0  0  0  0  0  0
   -1.6794    3.7337   -0.9895 C   0  0  0  0  0  0  0  0  0  0  0  0
   -2.8250    4.5350   -1.0672 C   0  0  0  0  0  0  0  0  0  0  0  0
   -4.7955    4.7743   -1.9455 H   0  0  0  0  0  0  0  0  0  0  0  0
   -4.6616    2.6411   -3.2455 H   0  0  0  0  0  0  0  0  0  0  0  0
   -2.6483    1.2082   -3.0979 H   0  0  0  0  0  0  0  0  0  0  0  0
   -0.8446    4.0383   -0.3483 H   0  0  0  0  0  0  0  0  0  0  0  0
   -2.8756    5.4653   -0.4922 H   0  0  0  0  0  0  0  0  0  0  0  0
   -1.2059   -1.6702    2.9250 C   0  0  0  0  0  0  0  0  0  0  0  0
   -2.4004   -0.8110    2.4536 C   0  0  0  0  0  0  0  0  0  0  0  0
   -0.8100   -2.8117    1.9620 C   0  0  0  0  0  0  0  0  0  0  0  0
   -1.5305    1.9839    1.9966 C   0  0  0  0  0  0  0  0  0  0  0  0
    1.9218   -2.4006    0.8870 C   0  0  0  0  0  0  0  0  0  0  0  0
   -0.1722    2.2468    2.2718 C   0  0  0  0  0  0  0  0  0  0  0  0
    2.5790   -1.2897    1.4568 C   0  0  0  0  0  0  0  0  0  0  0  0
   -2.5095    2.9328    2.3560 C   0  0  0  0  0  0  0  0  0  0  0  0
    2.6500   -3.5777    0.6190 C   0  0  0  0  0  0  0  0  0  0  0  0
    0.2015    3.4384    2.9073 C   0  0  0  0  0  0  0  0  0  0  0  0
    3.9437   -1.3600    1.7661 C   0  0  0  0  0  0  0  0  0  0  0  0
   -2.1299    4.1269    2.9840 C   0  0  0  0  0  0  0  0  0  0  0  0
    4.0172   -3.6395    0.9218 C   0  0  0  0  0  0  0  0  0  0  0  0
   -0.7774    4.3803    3.2607 C   0  0  0  0  0  0  0  0  0  0  0  0
    4.6640   -2.5343    1.4955 C   0  0  0  0  0  0  0  0  0  0  0  0
   -0.3306   -1.0286    3.1486 H   0  0  0  0  0  0  0  0  0  0  0  0
   -1.4885   -2.1321    3.8877 H   0  0  0  0  0  0  0  0  0  0  0  0
   -3.1986   -1.4570    2.0428 H   0  0  0  0  0  0  0  0  0  0  0  0
   -2.8338   -0.2550    3.3031 H   0  0  0  0  0  0  0  0  0  0  0  0
   -1.7143   -3.3303    1.5925 H   0  0  0  0  0  0  0  0  0  0  0  0
   -0.1937   -3.5621    2.4871 H   0  0  0  0  0  0  0  0  0  0  0  0
   -3.2664    0.7686    0.6221 H   0  0  0  0  0  0  0  0  0  0  0  0
   -0.0084   -3.3754   -0.4139 H   0  0  0  0  0  0  0  0  0  0  0  0
    0.5943    1.5221    1.9722 H   0  0  0  0  0  0  0  0  0  0  0  0
    2.0222   -0.3644    1.6464 H   0  0  0  0  0  0  0  0  0  0  0  0
   -3.5658    2.7505    2.1308 H   0  0  0  0  0  0  0  0  0  0  0  0
    2.1572   -4.4401    0.1574 H   0  0  0  0  0  0  0  0  0  0  0  0
    1.2571    3.6361    3.1196 H   0  0  0  0  0  0  0  0  0  0  0  0
    4.4478   -0.4961    2.2111 H   0  0  0  0  0  0  0  0  0  0  0  0
   -2.8931    4.8642    3.2531 H   0  0  0  0  0  0  0  0  0  0  0  0
    4.5795   -4.5532    0.7037 H   0  0  0  0  0  0  0  0  0  0  0  0
   -0.4851    5.3155    3.7489 H   0  0  0  0  0  0  0  0  0  0  0  0
    5.7324   -2.5860    1.7285 H   0  0  0  0  0  0  0  0  0  0  0  0
  1  8  1  0
  2  1  1  0
  2  3  1  0
  2  5  1  0
  3  9  1  0
  4  2  1  0
  6 35  1  0
  6 33  1  0
  7 36  1  0
  7 34  1  0
 10 15  1  0
 11 10  2  0
 11 12  1  0
 12 13  2  0
 13 14  1  0
 13  1  1  0
 14 19  1  0
 15 20  1  0
 15 14  2  0
 16 10  1  0
 17 11  1  0
 18 12  1  0
 21 26  1  0
 22 23  1  0
 22 21  2  0
 23 24  2  0
 24  3  1  0
 24 25  1  0
 25 30  1  0
 26 25  2  0
 26 31  1  0
 27 21  1  0
 28 22  1  0
 29 23  1  0
 32 47  1  0
 32 48  1  0
 33 32  1  0
 33 50  1  0
 34 52  1  0
 34 32  1  0
 35 37  2  0
 35 39  1  0
 36 38  1  0
 37 41  1  0
 38 56  1  0
 38 42  2  0
 39 43  2  0
 40 36  2  0
 40 44  1  0
 41 59  1  0
 41 45  2  0
 42 60  1  0
 43 61  1  0
 43 45  1  0
 44 46  2  0
 45 63  1  0
 46 64  1  0
 46 42  1  0
 49 33  1  0
 51 34  1  0
 53  6  1  0
 54  7  1  0
 55 37  1  0
 57 39  1  0
 58 40  1  0
 62 44  1  0
M  END
>  <Energy>  (2) 
-1973.1010609999998

$$$$
149_cs_CONF_0003.xyz
     RDKit          3D

 64 66  0  0  0  0  0  0  0  0999 V2000
   -1.2164    1.1301   -2.1696 C   0  0  0  0  0  3  0  0  0  0  0  0
   -0.0813    0.6421   -2.8768 C   0  0  0  0  0  0  0  0  0  0  0  0
    0.2962   -0.7253   -2.7326 C   0  0  0  0  0  3  0  0  0  0  0  0
    0.6058    1.3473   -3.3598 H   0  0  0  0  0  0  0  0  0  0  0  0
    0.2578    0.2767   -0.7431 Pd  0  0  0  0  0  1  0  0  0  0  0  0
    1.8138   -1.0024    0.4095 P   0  0  0  0  0  0  0  0  0  0  0  0
   -0.2420    1.6554    1.0499 P   0  0  0  0  0  0  0  0  0  0  0  0
   -2.0001    0.3952   -1.9260 H   0  0  0  0  0  0  0  0  0  0  0  0
   -0.5176   -1.4396   -2.5313 H   0  0  0  0  0  0  0  0  0  0  0  0
   -2.4896    5.2033   -1.6199 C   0  0  0  0  0  0  0  0  0  0  0  0
   -3.2786    4.1339   -1.1702 C   0  0  0  0  0  0  0  0  0  0  0  0
   -2.8563    2.8147   -1.3770 C   0  0  0  0  0  0  0  0  0  0  0  0
   -1.6355    2.5379   -2.0363 C   0  0  0  0  0  0  0  0  0  0  0  0
   -0.8474    3.6256   -2.4780 C   0  0  0  0  0  0  0  0  0  0  0  0
   -1.2738    4.9425   -2.2747 C   0  0  0  0  0  0  0  0  0  0  0  0
   -2.8196    6.2355   -1.4651 H   0  0  0  0  0  0  0  0  0  0  0  0
   -4.2296    4.3265   -0.6628 H   0  0  0  0  0  0  0  0  0  0  0  0
   -3.4753    1.9828   -1.0216 H   0  0  0  0  0  0  0  0  0  0  0  0
    0.1063    3.4460   -2.9849 H   0  0  0  0  0  0  0  0  0  0  0  0
   -0.6555    5.7729   -2.6312 H   0  0  0  0  0  0  0  0  0  0  0  0
    3.9296   -2.6021   -4.0727 C   0  0  0  0  0  0  0  0  0  0  0  0
    2.8177   -3.3725   -3.7017 C   0  0  0  0  0  0  0  0  0  0  0  0
    1.6396   -2.7452   -3.2774 C   0  0  0  0  0  0  0  0  0  0  0  0
    1.5482   -1.3358   -3.2182 C   0  0  0  0  0  0  0  0  0  0  0  0
    2.6815   -0.5722   -3.5833 C   0  0  0  0  0  0  0  0  0  0  0  0
    3.8563   -1.2000   -4.0100 C   0  0  0  0  0  0  0  0  0  0  0  0
    4.8506   -3.0897   -4.4076 H   0  0  0  0  0  0  0  0  0  0  0  0
    2.8657   -4.4653   -3.7476 H   0  0  0  0  0  0  0  0  0  0  0  0
    0.7726   -3.3527   -2.9927 H   0  0  0  0  0  0  0  0  0  0  0  0
    2.6497    0.5213   -3.5263 H   0  0  0  0  0  0  0  0  0  0  0  0
    4.7222   -0.5935   -4.2950 H   0  0  0  0  0  0  0  0  0  0  0  0
    1.8541    0.6574    2.7503 C   0  0  0  0  0  0  0  0  0  0  0  0
    2.7445   -0.0626    1.7115 C   0  0  0  0  0  0  0  0  0  0  0  0
    1.1513    1.9380    2.2536 C   0  0  0  0  0  0  0  0  0  0  0  0
    1.0796   -2.4673    1.2385 C   0  0  0  0  0  0  0  0  0  0  0  0
   -1.6848    1.1313    2.0353 C   0  0  0  0  0  0  0  0  0  0  0  0
   -0.0085   -3.1042    0.6028 C   0  0  0  0  0  0  0  0  0  0  0  0
   -2.6600    2.0630    2.4500 C   0  0  0  0  0  0  0  0  0  0  0  0
    1.5312   -2.9532    2.4825 C   0  0  0  0  0  0  0  0  0  0  0  0
   -1.8275   -0.2311    2.3773 C   0  0  0  0  0  0  0  0  0  0  0  0
   -0.6271   -4.2125    1.1956 C   0  0  0  0  0  0  0  0  0  0  0  0
   -3.7579    1.6333    3.2085 C   0  0  0  0  0  0  0  0  0  0  0  0
    0.9010   -4.0555    3.0780 C   0  0  0  0  0  0  0  0  0  0  0  0
   -2.9215   -0.6497    3.1457 C   0  0  0  0  0  0  0  0  0  0  0  0
   -0.1757   -4.6864    2.4372 C   0  0  0  0  0  0  0  0  0  0  0  0
   -3.8870    0.2808    3.5607 C   0  0  0  0  0  0  0  0  0  0  0  0
    1.1114   -0.0461    3.1729 H   0  0  0  0  0  0  0  0  0  0  0  0
    2.5038    0.9476    3.5953 H   0  0  0  0  0  0  0  0  0  0  0  0
    3.3747    0.6646    1.1666 H   0  0  0  0  0  0  0  0  0  0  0  0
    3.4372   -0.7571    2.2188 H   0  0  0  0  0  0  0  0  0  0  0  0
    1.8735    2.6009    1.7411 H   0  0  0  0  0  0  0  0  0  0  0  0
    0.7364    2.4980    3.1101 H   0  0  0  0  0  0  0  0  0  0  0  0
    2.8691   -1.5433   -0.3772 H   0  0  0  0  0  0  0  0  0  0  0  0
   -0.5955    2.9828    0.6913 H   0  0  0  0  0  0  0  0  0  0  0  0
   -0.3754   -2.7228   -0.3568 H   0  0  0  0  0  0  0  0  0  0  0  0
   -2.5666    3.1198    2.1761 H   0  0  0  0  0  0  0  0  0  0  0  0
    2.3732   -2.4810    2.9981 H   0  0  0  0  0  0  0  0  0  0  0  0
   -1.0916   -0.9676    2.0356 H   0  0  0  0  0  0  0  0  0  0  0  0
   -1.4665   -4.7016    0.6911 H   0  0  0  0  0  0  0  0  0  0  0  0
   -4.5146    2.3581    3.5259 H   0  0  0  0  0  0  0  0  0  0  0  0
    1.2565   -4.4233    4.0459 H   0  0  0  0  0  0  0  0  0  0  0  0
   -3.0233   -1.7071    3.4111 H   0  0  0  0  0  0  0  0  0  0  0  0
   -0.6634   -5.5472    2.9059 H   0  0  0  0  0  0  0  0  0  0  0  0
   -4.7456   -0.0492    4.1544 H   0  0  0  0  0  0  0  0  0  0  0  0
  1 13  1  0
  1  8  1  0
  2  3  1  0
  2  1  1  0
  2  5  1  0
  3  9  1  0
  4  2  1  0
  6 35  1  0
  6 33  1  0
  7 36  1  0
  7 34  1  0
 10 16  1  0
 10 11  1  0
 11 17  1  0
 12 11  2  0
 12 18  1  0
 13 12  1  0
 14 15  1  0
 14 13  2  0
 15 10  2  0
 19 14  1  0
 20 15  1  0
 21 26  2  0
 21 22  1  0
 22 23  2  0
 23 24  1  0
 23 29  1  0
 24  3  1  0
 25 30  1  0
 25 24  2  0
 26 25  1  0
 27 21  1  0
 28 22  1  0
 31 26  1  0
 32 47  1  0
 32 48  1  0
 33 50  1  0
 33 32  1  0
 34 32  1  0
 34 52  1  0
 35 39  1  0
 36 40  2  0
 36 38  1  0
 37 41  1  0
 37 35  2  0
 38 42  2  0
 39 57  1  0
 39 43  2  0
 40 44  1  0
 41 45  2  0
 42 60  1  0
 42 46  1  0
 43 61  1  0
 44 62  1  0
 44 46  2  0
 45 63  1  0
 45 43  1  0
 46 64  1  0
 49 33  1  0
 51 34  1  0
 53  6  1  0
 54  7  1  0
 55 37  1  0
 56 38  1  0
 58 40  1  0
 59 41  1  0
M  END
>  <Energy>  (3) 
-1973.1006690000002

$$$$
149_cs_CONF_0004.xyz
     RDKit          3D

 64 66  0  0  0  0  0  0  0  0999 V2000
   -1.1491    1.1094   -1.7275 C   0  0  0  0  0  3  0  0  0  0  0  0
   -0.0541    0.5432   -2.4415 C   0  0  0  0  0  0  0  0  0  0  0  0
    0.3358   -0.8017   -2.1798 C   0  0  0  0  0  3  0  0  0  0  0  0
    0.5986    1.1912   -3.0393 H   0  0  0  0  0  0  0  0  0  0  0  0
    0.3985    0.3868   -0.2959 Pd  0  0  0  0  0  1  0  0  0  0  0  0
    1.9860   -0.9009    0.7956 P   0  0  0  0  0  0  0  0  0  0  0  0
   -0.1425    1.8169    1.4455 P   0  0  0  0  0  0  0  0  0  0  0  0
   -1.9248    0.4102   -1.3767 H   0  0  0  0  0  0  0  0  0  0  0  0
   -0.4525   -1.4851   -1.8261 H   0  0  0  0  0  0  0  0  0  0  0  0
   -2.4307    5.2152   -1.6606 C   0  0  0  0  0  0  0  0  0  0  0  0
   -3.2676    4.1928   -1.1907 C   0  0  0  0  0  0  0  0  0  0  0  0
   -2.8382    2.8606   -1.2289 C   0  0  0  0  0  0  0  0  0  0  0  0
   -1.5635    2.5248   -1.7400 C   0  0  0  0  0  0  0  0  0  0  0  0
   -0.7255    3.5673   -2.2017 C   0  0  0  0  0  0  0  0  0  0  0  0
   -1.1579    4.8965   -2.1653 C   0  0  0  0  0  0  0  0  0  0  0  0
   -2.7653    6.2573   -1.6349 H   0  0  0  0  0  0  0  0  0  0  0  0
   -4.2596    4.4312   -0.7935 H   0  0  0  0  0  0  0  0  0  0  0  0
   -3.4935    2.0666   -0.8535 H   0  0  0  0  0  0  0  0  0  0  0  0
    0.2752    3.3403   -2.5846 H   0  0  0  0  0  0  0  0  0  0  0  0
   -0.4996    5.6910   -2.5317 H   0  0  0  0  0  0  0  0  0  0  0  0
    3.8400   -2.8617   -3.5872 C   0  0  0  0  0  0  0  0  0  0  0  0
    3.7899   -1.4581   -3.6528 C   0  0  0  0  0  0  0  0  0  0  0  0
    2.6573   -0.7707   -3.2059 C   0  0  0  0  0  0  0  0  0  0  0  0
    1.5446   -1.4759   -2.6892 C   0  0  0  0  0  0  0  0  0  0  0  0
    1.6126   -2.8862   -2.6207 C   0  0  0  0  0  0  0  0  0  0  0  0
    2.7486   -3.5723   -3.0675 C   0  0  0  0  0  0  0  0  0  0  0  0
    4.7282   -3.3958   -3.9398 H   0  0  0  0  0  0  0  0  0  0  0  0
    4.6408   -0.8982   -4.0544 H   0  0  0  0  0  0  0  0  0  0  0  0
    2.6428    0.3237   -3.2500 H   0  0  0  0  0  0  0  0  0  0  0  0
    0.7659   -3.4460   -2.2076 H   0  0  0  0  0  0  0  0  0  0  0  0
    2.7796   -4.6651   -3.0092 H   0  0  0  0  0  0  0  0  0  0  0  0
    1.2205    0.1583    3.3595 C   0  0  0  0  0  0  0  0  0  0  0  0
    2.4075   -0.4010    2.5438 C   0  0  0  0  0  0  0  0  0  0  0  0
    0.8340    1.6158    3.0228 C   0  0  0  0  0  0  0  0  0  0  0  0
    1.5468   -2.6735    0.8464 C   0  0  0  0  0  0  0  0  0  0  0  0
   -1.9085    1.7306    1.9066 C   0  0  0  0  0  0  0  0  0  0  0  0
    2.5256   -3.6726    0.6687 C   0  0  0  0  0  0  0  0  0  0  0  0
   -2.6189    2.8863    2.2911 C   0  0  0  0  0  0  0  0  0  0  0  0
    0.1975   -3.0445    1.0256 C   0  0  0  0  0  0  0  0  0  0  0  0
   -2.5801    0.4921    1.8358 C   0  0  0  0  0  0  0  0  0  0  0  0
    2.1551   -5.0244    0.6734 C   0  0  0  0  0  0  0  0  0  0  0  0
   -3.9830    2.7990    2.6007 C   0  0  0  0  0  0  0  0  0  0  0  0
   -0.1663   -4.3975    1.0384 C   0  0  0  0  0  0  0  0  0  0  0  0
   -3.9420    0.4085    2.1544 C   0  0  0  0  0  0  0  0  0  0  0  0
    0.8125   -5.3879    0.8590 C   0  0  0  0  0  0  0  0  0  0  0  0
   -4.6446    1.5630    2.5337 C   0  0  0  0  0  0  0  0  0  0  0  0
    0.3395   -0.5078    3.2705 H   0  0  0  0  0  0  0  0  0  0  0  0
    1.5079    0.1290    4.4256 H   0  0  0  0  0  0  0  0  0  0  0  0
    3.2131    0.3537    2.4748 H   0  0  0  0  0  0  0  0  0  0  0  0
    2.8328   -1.2893    3.0423 H   0  0  0  0  0  0  0  0  0  0  0  0
    1.7422    2.2383    2.9183 H   0  0  0  0  0  0  0  0  0  0  0  0
    0.2301    2.0520    3.8375 H   0  0  0  0  0  0  0  0  0  0  0  0
    3.2657   -0.9473    0.1841 H   0  0  0  0  0  0  0  0  0  0  0  0
    0.0102    3.2022    1.1779 H   0  0  0  0  0  0  0  0  0  0  0  0
    3.5736   -3.3981    0.5081 H   0  0  0  0  0  0  0  0  0  0  0  0
   -2.1146    3.8577    2.3317 H   0  0  0  0  0  0  0  0  0  0  0  0
   -0.5702   -2.2702    1.1413 H   0  0  0  0  0  0  0  0  0  0  0  0
   -2.0366   -0.4047    1.5147 H   0  0  0  0  0  0  0  0  0  0  0  0
    2.9180   -5.7958    0.5263 H   0  0  0  0  0  0  0  0  0  0  0  0
   -4.5320    3.7009    2.8900 H   0  0  0  0  0  0  0  0  0  0  0  0
   -1.2145   -4.6797    1.1803 H   0  0  0  0  0  0  0  0  0  0  0  0
   -4.4576   -0.5556    2.0991 H   0  0  0  0  0  0  0  0  0  0  0  0
    0.5272   -6.4449    0.8598 H   0  0  0  0  0  0  0  0  0  0  0  0
   -5.7110    1.5000    2.7732 H   0  0  0  0  0  0  0  0  0  0  0  0
  1  8  1  0
  2  3  1  0
  2  1  1  0
  2  5  1  0
  3  9  1  0
  4  2  1  0
  6 35  1  0
  6 33  1  0
  7 36  1  0
  7 34  1  0
 10 16  1  0
 10 11  1  0
 11 17  1  0
 12 11  2  0
 12 18  1  0
 13  1  1  0
 13 12  1  0
 14 15  1  0
 14 13  2  0
 15 10  2  0
 19 14  1  0
 20 15  1  0
 21 26  1  0
 22 21  2  0
 22 23  1  0
 23 24  2  0
 24 25  1  0
 24  3  1  0
 25 30  1  0
 26 31  1  0
 26 25  2  0
 27 21  1  0
 28 22  1  0
 29 23  1  0
 32 48  1  0
 33 50  1  0
 33 32  1  0
 34 32  1  0
 34 52  1  0
 35 39  1  0
 36 38  1  0
 37 41  1  0
 37 35  2  0
 38 56  1  0
 38 42  2  0
 39 43  2  0
 39 57  1  0
 40 36  2  0
 40 44  1  0
 41 45  2  0
 42 60  1  0
 43 61  1  0
 44 46  2  0
 45 63  1  0
 45 43  1  0
 46 42  1  0
 46 64  1  0
 47 32  1  0
 49 33  1  0
 51 34  1  0
 53  6  1  0
 54  7  1  0
 55 37  1  0
 58 40  1  0
 59 41  1  0
 62 44  1  0
M  END
>  <Energy>  (4) 
-1973.101095

$$$$
149_cs_CONF_0005.xyz
     RDKit          3D

 64 66  0  0  0  0  0  0  0  0999 V2000
   -1.2600    1.0115   -1.7108 C   0  0  0  0  0  3  0  0  0  0  0  0
   -0.1856    0.4501   -2.4590 C   0  0  0  0  0  0  0  0  0  0  0  0
    0.2532   -0.8746   -2.1724 C   0  0  0  0  0  3  0  0  0  0  0  0
    0.4192    1.0946   -3.1086 H   0  0  0  0  0  0  0  0  0  0  0  0
    0.3731    0.3791   -0.3342 Pd  0  0  0  0  0  1  0  0  0  0  0  0
    2.0425   -0.8330    0.7214 P   0  0  0  0  0  0  0  0  0  0  0  0
   -0.1119    1.8625    1.3789 P   0  0  0  0  0  0  0  0  0  0  0  0
   -1.9987    0.3047   -1.3003 H   0  0  0  0  0  0  0  0  0  0  0  0
   -0.4984   -1.5653   -1.7583 H   0  0  0  0  0  0  0  0  0  0  0  0
   -2.6512    5.0821   -1.7216 C   0  0  0  0  0  0  0  0  0  0  0  0
   -3.4458    4.0520   -1.1981 C   0  0  0  0  0  0  0  0  0  0  0  0
   -2.9809    2.7312   -1.2103 C   0  0  0  0  0  0  0  0  0  0  0  0
   -1.7134    2.4145   -1.7501 C   0  0  0  0  0  0  0  0  0  0  0  0
   -0.9178    3.4649   -2.2657 C   0  0  0  0  0  0  0  0  0  0  0  0
   -1.3849    4.7827   -2.2540 C   0  0  0  0  0  0  0  0  0  0  0  0
   -3.0135    6.1152   -1.7157 H   0  0  0  0  0  0  0  0  0  0  0  0
   -4.4319    4.2756   -0.7784 H   0  0  0  0  0  0  0  0  0  0  0  0
   -3.6024    1.9315   -0.7919 H   0  0  0  0  0  0  0  0  0  0  0  0
    0.0779    3.2532   -2.6702 H   0  0  0  0  0  0  0  0  0  0  0  0
   -0.7591    5.5836   -2.6613 H   0  0  0  0  0  0  0  0  0  0  0  0
    3.7477   -2.8901   -3.6657 C   0  0  0  0  0  0  0  0  0  0  0  0
    2.7115   -3.6076   -3.0510 C   0  0  0  0  0  0  0  0  0  0  0  0
    1.5767   -2.9366   -2.5790 C   0  0  0  0  0  0  0  0  0  0  0  0
    1.4554   -1.5346   -2.7150 C   0  0  0  0  0  0  0  0  0  0  0  0
    2.5129   -0.8218   -3.3280 C   0  0  0  0  0  0  0  0  0  0  0  0
    3.6437   -1.4946   -3.8012 C   0  0  0  0  0  0  0  0  0  0  0  0
    4.6344   -3.4128   -4.0387 H   0  0  0  0  0  0  0  0  0  0  0  0
    2.7844   -4.6942   -2.9386 H   0  0  0  0  0  0  0  0  0  0  0  0
    0.7733   -3.5012   -2.0928 H   0  0  0  0  0  0  0  0  0  0  0  0
    2.4568    0.2674   -3.4289 H   0  0  0  0  0  0  0  0  0  0  0  0
    4.4508   -0.9293   -4.2785 H   0  0  0  0  0  0  0  0  0  0  0  0
    1.3871    0.3064    3.2794 C   0  0  0  0  0  0  0  0  0  0  0  0
    2.5443   -0.2547    2.4233 C   0  0  0  0  0  0  0  0  0  0  0  0
    0.9465    1.7409    2.9112 C   0  0  0  0  0  0  0  0  0  0  0  0
    1.6409   -2.6096    0.8691 C   0  0  0  0  0  0  0  0  0  0  0  0
   -1.8504    1.7621    1.9307 C   0  0  0  0  0  0  0  0  0  0  0  0
    2.6401   -3.5959    0.7396 C   0  0  0  0  0  0  0  0  0  0  0  0
   -2.5812    2.9237    2.2540 C   0  0  0  0  0  0  0  0  0  0  0  0
    0.3014   -2.9988    1.0784 C   0  0  0  0  0  0  0  0  0  0  0  0
   -2.4822    0.5022    1.9930 C   0  0  0  0  0  0  0  0  0  0  0  0
    2.2992   -4.9529    0.8210 C   0  0  0  0  0  0  0  0  0  0  0  0
   -3.9258    2.8212    2.6363 C   0  0  0  0  0  0  0  0  0  0  0  0
   -0.0333   -4.3566    1.1671 C   0  0  0  0  0  0  0  0  0  0  0  0
   -3.8239    0.4044    2.3843 C   0  0  0  0  0  0  0  0  0  0  0  0
    0.9655   -5.3341    1.0353 C   0  0  0  0  0  0  0  0  0  0  0  0
   -4.5472    1.5648    2.7029 C   0  0  0  0  0  0  0  0  0  0  0  0
    0.5203   -0.3835    3.2607 H   0  0  0  0  0  0  0  0  0  0  0  0
    1.7294    0.3241    4.3295 H   0  0  0  0  0  0  0  0  0  0  0  0
    3.3249    0.5162    2.2824 H   0  0  0  0  0  0  0  0  0  0  0  0
    3.0188   -1.1120    2.9317 H   0  0  0  0  0  0  0  0  0  0  0  0
    1.8322    2.3805    2.7391 H   0  0  0  0  0  0  0  0  0  0  0  0
    0.3727    2.1921    3.7392 H   0  0  0  0  0  0  0  0  0  0  0  0
    3.2896   -0.8822    0.0459 H   0  0  0  0  0  0  0  0  0  0  0  0
   -0.0016    3.2385    1.0504 H   0  0  0  0  0  0  0  0  0  0  0  0
    3.6812   -3.3082    0.5575 H   0  0  0  0  0  0  0  0  0  0  0  0
   -2.1091    3.9100    2.1903 H   0  0  0  0  0  0  0  0  0  0  0  0
   -0.4819   -2.2353    1.1559 H   0  0  0  0  0  0  0  0  0  0  0  0
   -1.9242   -0.4017    1.7212 H   0  0  0  0  0  0  0  0  0  0  0  0
    3.0776   -5.7149    0.7113 H   0  0  0  0  0  0  0  0  0  0  0  0
   -4.4909    3.7272    2.8779 H   0  0  0  0  0  0  0  0  0  0  0  0
   -1.0744   -4.6528    1.3311 H   0  0  0  0  0  0  0  0  0  0  0  0
   -4.3083   -0.5761    2.4333 H   0  0  0  0  0  0  0  0  0  0  0  0
    0.7032   -6.3953    1.0955 H   0  0  0  0  0  0  0  0  0  0  0  0
   -5.5983    1.4895    2.9996 H   0  0  0  0  0  0  0  0  0  0  0  0
  1  8  1  0
  2  3  1  0
  2  1  1  0
  2  5  1  0
  3  9  1  0
  4  2  1  0
  6 35  1  0
  6 33  1  0
  7 36  1  0
  7 34  1  0
 10 16  1  0
 10 11  1  0
 11 17  1  0
 12 11  2  0
 12 18  1  0
 13  1  1  0
 13 12  1  0
 14 15  1  0
 14 13  2  0
 15 10  2  0
 19 14  1  0
 20 15  1  0
 21 22  1  0
 22 28  1  0
 22 23  2  0
 23 29  1  0
 24 23  1  0
 24  3  1  0
 25 24  2  0
 26 21  2  0
 26 25  1  0
 27 21  1  0
 30 25  1  0
 31 26  1  0
 32 48  1  0
 33 50  1  0
 33 32  1  0
 34 32  1  0
 34 52  1  0
 35 39  1  0
 36 40  2  0
 36 38  1  0
 37 41  1  0
 37 35  2  0
 38 42  2  0
 39 57  1  0
 39 43  2  0
 40 44  1  0
 41 45  2  0
 42 46  1  0
 42 60  1  0
 43 61  1  0
 44 62  1  0
 44 46  2  0
 45 63  1  0
 45 43  1  0
 46 64  1  0
 47 32  1  0
 49 33  1  0
 51 34  1  0
 53  6  1  0
 54  7  1  0
 55 37  1  0
 56 38  1  0
 58 40  1  0
 59 41  1  0
M  END
>  <Energy>  (5) 
-1973.101125

$$$$
149_cs_CONF_0006.xyz
     RDKit          3D

 64 66  0  0  0  0  0  0  0  0999 V2000
   -1.2455    1.0122   -1.7073 C   0  0  0  0  0  3  0  0  0  0  0  0
   -0.1675    0.4486   -2.4487 C   0  0  0  0  0  0  0  0  0  0  0  0
    0.2691   -0.8758   -2.1576 C   0  0  0  0  0  3  0  0  0  0  0  0
    0.4406    1.0914   -3.0971 H   0  0  0  0  0  0  0  0  0  0  0  0
    0.3807    0.3808   -0.3208 Pd  0  0  0  0  0  1  0  0  0  0  0  0
    2.0412   -0.8324    0.7471 P   0  0  0  0  0  0  0  0  0  0  0  0
   -0.1177    1.8635    1.3890 P   0  0  0  0  0  0  0  0  0  0  0  0
   -1.9868    0.3067   -1.2994 H   0  0  0  0  0  0  0  0  0  0  0  0
   -0.4848   -1.5653   -1.7459 H   0  0  0  0  0  0  0  0  0  0  0  0
   -2.6363    5.0827   -1.7422 C   0  0  0  0  0  0  0  0  0  0  0  0
   -3.4370    4.0538   -1.2259 C   0  0  0  0  0  0  0  0  0  0  0  0
   -2.9719    2.7330   -1.2293 C   0  0  0  0  0  0  0  0  0  0  0  0
   -1.6982    2.4151   -1.7535 C   0  0  0  0  0  0  0  0  0  0  0  0
   -0.8963    3.4645   -2.2618 C   0  0  0  0  0  0  0  0  0  0  0  0
   -1.3636    4.7823   -2.2586 C   0  0  0  0  0  0  0  0  0  0  0  0
   -2.9987    6.1157   -1.7430 H   0  0  0  0  0  0  0  0  0  0  0  0
   -4.4281    4.2782   -0.8186 H   0  0  0  0  0  0  0  0  0  0  0  0
   -3.5982    1.9342   -0.8164 H   0  0  0  0  0  0  0  0  0  0  0  0
    0.1042    3.2518   -2.6537 H   0  0  0  0  0  0  0  0  0  0  0  0
   -0.7329    5.5823   -2.6599 H   0  0  0  0  0  0  0  0  0  0  0  0
    3.7628   -2.8972   -3.6449 C   0  0  0  0  0  0  0  0  0  0  0  0
    2.7198   -3.6141   -3.0410 C   0  0  0  0  0  0  0  0  0  0  0  0
    1.5860   -2.9410   -2.5697 C   0  0  0  0  0  0  0  0  0  0  0  0
    1.4721   -1.5376   -2.6961 C   0  0  0  0  0  0  0  0  0  0  0  0
    2.5366   -0.8254   -3.2978 C   0  0  0  0  0  0  0  0  0  0  0  0
    3.6665   -1.5001   -3.7700 C   0  0  0  0  0  0  0  0  0  0  0  0
    4.6488   -3.4214   -4.0173 H   0  0  0  0  0  0  0  0  0  0  0  0
    2.7869   -4.7018   -2.9363 H   0  0  0  0  0  0  0  0  0  0  0  0
    0.7773   -3.5053   -2.0920 H   0  0  0  0  0  0  0  0  0  0  0  0
    2.4865    0.2649   -3.3899 H   0  0  0  0  0  0  0  0  0  0  0  0
    4.4792   -0.9353   -4.2384 H   0  0  0  0  0  0  0  0  0  0  0  0
    1.3543    0.2968    3.3020 C   0  0  0  0  0  0  0  0  0  0  0  0
    2.5215   -0.2621    2.4580 C   0  0  0  0  0  0  0  0  0  0  0  0
    0.9205    1.7334    2.9344 C   0  0  0  0  0  0  0  0  0  0  0  0
    1.6429   -2.6108    0.8782 C   0  0  0  0  0  0  0  0  0  0  0  0
   -1.8637    1.7697    1.9179 C   0  0  0  0  0  0  0  0  0  0  0  0
    0.3049   -3.0039    1.0913 C   0  0  0  0  0  0  0  0  0  0  0  0
   -2.5028    0.5129    1.9664 C   0  0  0  0  0  0  0  0  0  0  0  0
    2.6419   -3.5944    0.7288 C   0  0  0  0  0  0  0  0  0  0  0  0
   -2.5928    2.9338    2.2358 C   0  0  0  0  0  0  0  0  0  0  0  0
   -0.0280   -4.3630    1.1640 C   0  0  0  0  0  0  0  0  0  0  0  0
   -3.8502    0.4206    2.3389 C   0  0  0  0  0  0  0  0  0  0  0  0
    2.3024   -4.9527    0.7939 C   0  0  0  0  0  0  0  0  0  0  0  0
   -3.9430    2.8369    2.5993 C   0  0  0  0  0  0  0  0  0  0  0  0
    0.9706   -5.3379    1.0118 C   0  0  0  0  0  0  0  0  0  0  0  0
   -4.5718    1.5835    2.6522 C   0  0  0  0  0  0  0  0  0  0  0  0
    0.4868   -0.3918    3.2692 H   0  0  0  0  0  0  0  0  0  0  0  0
    1.6834    0.3093    4.3563 H   0  0  0  0  0  0  0  0  0  0  0  0
    3.3047    0.5084    2.3305 H   0  0  0  0  0  0  0  0  0  0  0  0
    2.9885   -1.1222    2.9685 H   0  0  0  0  0  0  0  0  0  0  0  0
    1.8093    2.3725    2.7767 H   0  0  0  0  0  0  0  0  0  0  0  0
    0.3366    2.1818    3.7569 H   0  0  0  0  0  0  0  0  0  0  0  0
    3.2962   -0.8744    0.0860 H   0  0  0  0  0  0  0  0  0  0  0  0
    0.0031    3.2399    1.0657 H   0  0  0  0  0  0  0  0  0  0  0  0
   -0.4786   -2.2423    1.1846 H   0  0  0  0  0  0  0  0  0  0  0  0
   -1.9459   -0.3928    1.6981 H   0  0  0  0  0  0  0  0  0  0  0  0
    3.6814   -3.3034    0.5431 H   0  0  0  0  0  0  0  0  0  0  0  0
   -2.1148    3.9178    2.1825 H   0  0  0  0  0  0  0  0  0  0  0  0
   -1.0677   -4.6623    1.3311 H   0  0  0  0  0  0  0  0  0  0  0  0
   -4.3404   -0.5575    2.3770 H   0  0  0  0  0  0  0  0  0  0  0  0
    3.0807   -5.7124    0.6685 H   0  0  0  0  0  0  0  0  0  0  0  0
   -4.5067    3.7449    2.8366 H   0  0  0  0  0  0  0  0  0  0  0  0
    0.7094   -6.4000    1.0590 H   0  0  0  0  0  0  0  0  0  0  0  0
   -5.6273    1.5125    2.9340 H   0  0  0  0  0  0  0  0  0  0  0  0
  1  8  1  0
  2  3  1  0
  2  1  1  0
  2  5  1  0
  3  9  1  0
  4  2  1  0
  6 35  1  0
  6 33  1  0
  7 36  1  0
  7 34  1  0
 10 11  1  0
 11 17  1  0
 12 11  2  0
 12 18  1  0
 13  1  1  0
 13 12  1  0
 14 15  1  0
 14 13  2  0
 15 10  2  0
 16 10  1  0
 19 14  1  0
 20 15  1  0
 21 22  1  0
 22 28  1  0
 22 23  2  0
 23 29  1  0
 24 23  1  0
 24  3  1  0
 25 24  2  0
 26 21  2  0
 26 25  1  0
 27 21  1  0
 30 25  1  0
 31 26  1  0
 32 48  1  0
 33 50  1  0
 33 32  1  0
 34 32  1  0
 34 52  1  0
 35 37  1  0
 36 38  2  0
 36 40  1  0
 37 41  2  0
 37 55  1  0
 38 42  1  0
 39 43  1  0
 39 35  2  0
 40 44  2  0
 41 59  1  0
 42 60  1  0
 42 46  2  0
 43 45  2  0
 44 46  1  0
 44 62  1  0
 45 63  1  0
 45 41  1  0
 46 64  1  0
 47 32  1  0
 49 33  1  0
 51 34  1  0
 53  6  1  0
 54  7  1  0
 56 38  1  0
 57 39  1  0
 58 40  1  0
 61 43  1  0
M  END
>  <Energy>  (6) 
-1973.101109

$$$$
149_cs_CONF_0007.xyz
     RDKit          3D

 64 66  0  0  0  0  0  0  0  0999 V2000
   -1.2694    1.0551   -1.7486 C   0  0  0  0  0  3  0  0  0  0  0  0
   -0.2043    0.4841   -2.5028 C   0  0  0  0  0  0  0  0  0  0  0  0
    0.2120   -0.8510   -2.2303 C   0  0  0  0  0  3  0  0  0  0  0  0
    0.4134    1.1264   -3.1424 H   0  0  0  0  0  0  0  0  0  0  0  0
    0.3506    0.3777   -0.3787 Pd  0  0  0  0  0  1  0  0  0  0  0  0
    2.0122   -0.8652    0.6507 P   0  0  0  0  0  0  0  0  0  0  0  0
   -0.0945    1.8522    1.3517 P   0  0  0  0  0  0  0  0  0  0  0  0
   -2.0198    0.3564   -1.3456 H   0  0  0  0  0  0  0  0  0  0  0  0
   -0.5521   -1.5340   -1.8268 H   0  0  0  0  0  0  0  0  0  0  0  0
   -2.5860    5.1505   -1.6992 C   0  0  0  0  0  0  0  0  0  0  0  0
   -1.3364    4.8328   -2.2598 C   0  0  0  0  0  0  0  0  0  0  0  0
   -0.8934    3.5070   -2.2917 C   0  0  0  0  0  0  0  0  0  0  0  0
   -1.6974    2.4664   -1.7690 C   0  0  0  0  0  0  0  0  0  0  0  0
   -2.9481    2.8013   -1.2016 C   0  0  0  0  0  0  0  0  0  0  0  0
   -3.3886    4.1302   -1.1686 C   0  0  0  0  0  0  0  0  0  0  0  0
   -2.9294    6.1898   -1.6777 H   0  0  0  0  0  0  0  0  0  0  0  0
   -0.7047    5.6256   -2.6735 H   0  0  0  0  0  0  0  0  0  0  0  0
    0.0894    3.2813   -2.7193 H   0  0  0  0  0  0  0  0  0  0  0  0
   -3.5763    2.0090   -0.7794 H   0  0  0  0  0  0  0  0  0  0  0  0
   -4.3624    4.3677   -0.7281 H   0  0  0  0  0  0  0  0  0  0  0  0
    3.6955   -2.9033   -3.7004 C   0  0  0  0  0  0  0  0  0  0  0  0
    2.6609   -3.6058   -3.0655 C   0  0  0  0  0  0  0  0  0  0  0  0
    1.5285   -2.9233   -2.6050 C   0  0  0  0  0  0  0  0  0  0  0  0
    1.4085   -1.5240   -2.7703 C   0  0  0  0  0  0  0  0  0  0  0  0
    2.4640   -0.8266   -3.4036 C   0  0  0  0  0  0  0  0  0  0  0  0
    3.5918   -1.5113   -3.8670 C   0  0  0  0  0  0  0  0  0  0  0  0
    4.5800   -3.4351   -4.0655 H   0  0  0  0  0  0  0  0  0  0  0  0
    2.7330   -4.6898   -2.9298 H   0  0  0  0  0  0  0  0  0  0  0  0
    0.7260   -3.4762   -2.1042 H   0  0  0  0  0  0  0  0  0  0  0  0
    2.4086    0.2599   -3.5303 H   0  0  0  0  0  0  0  0  0  0  0  0
    4.3969   -0.9577   -4.3613 H   0  0  0  0  0  0  0  0  0  0  0  0
    1.4789    0.3210    3.2140 C   0  0  0  0  0  0  0  0  0  0  0  0
    2.5937   -0.2621    2.3172 C   0  0  0  0  0  0  0  0  0  0  0  0
    1.0263    1.7504    2.8399 C   0  0  0  0  0  0  0  0  0  0  0  0
    1.5663   -2.6261    0.8580 C   0  0  0  0  0  0  0  0  0  0  0  0
   -1.8062    1.7233    1.9749 C   0  0  0  0  0  0  0  0  0  0  0  0
    2.5540   -3.6327    0.8442 C   0  0  0  0  0  0  0  0  0  0  0  0
   -2.5746    2.8755    2.2398 C   0  0  0  0  0  0  0  0  0  0  0  0
    0.2100   -2.9842    1.0010 C   0  0  0  0  0  0  0  0  0  0  0  0
   -2.3796    0.4467    2.1570 C   0  0  0  0  0  0  0  0  0  0  0  0
    2.1844   -4.9781    0.9743 C   0  0  0  0  0  0  0  0  0  0  0  0
   -3.8977    2.7475    2.6849 C   0  0  0  0  0  0  0  0  0  0  0  0
   -0.1545   -4.3306    1.1376 C   0  0  0  0  0  0  0  0  0  0  0  0
   -3.6990    0.3249    2.6116 C   0  0  0  0  0  0  0  0  0  0  0  0
    0.8328   -5.3278    1.1218 C   0  0  0  0  0  0  0  0  0  0  0  0
   -4.4598    1.4756    2.8728 C   0  0  0  0  0  0  0  0  0  0  0  0
    0.6105   -0.3660    3.2488 H   0  0  0  0  0  0  0  0  0  0  0  0
    1.8690    0.3576    4.2467 H   0  0  0  0  0  0  0  0  0  0  0  0
    3.3717    0.5008    2.1275 H   0  0  0  0  0  0  0  0  0  0  0  0
    3.0854   -1.1133    2.8200 H   0  0  0  0  0  0  0  0  0  0  0  0
    1.9055    2.3843    2.6198 H   0  0  0  0  0  0  0  0  0  0  0  0
    0.4888    2.2167    3.6838 H   0  0  0  0  0  0  0  0  0  0  0  0
    3.2324   -0.9644   -0.0678 H   0  0  0  0  0  0  0  0  0  0  0  0
   -0.0224    3.2290    1.0159 H   0  0  0  0  0  0  0  0  0  0  0  0
    3.6099   -3.3703    0.7159 H   0  0  0  0  0  0  0  0  0  0  0  0
   -2.1486    3.8723    2.0840 H   0  0  0  0  0  0  0  0  0  0  0  0
   -0.5624   -2.2057    0.9853 H   0  0  0  0  0  0  0  0  0  0  0  0
   -1.7933   -0.4526    1.9347 H   0  0  0  0  0  0  0  0  0  0  0  0
    2.9541   -5.7565    0.9549 H   0  0  0  0  0  0  0  0  0  0  0  0
   -4.4919    3.6456    2.8823 H   0  0  0  0  0  0  0  0  0  0  0  0
   -1.2092   -4.6023    1.2482 H   0  0  0  0  0  0  0  0  0  0  0  0
   -4.1371   -0.6681    2.7553 H   0  0  0  0  0  0  0  0  0  0  0  0
    0.5483   -6.3805    1.2198 H   0  0  0  0  0  0  0  0  0  0  0  0
   -5.4938    1.3803    3.2196 H   0  0  0  0  0  0  0  0  0  0  0  0
  1  8  1  0
  2  3  1  0
  2  1  1  0
  2  5  1  0
  3  9  1  0
  4  2  1  0
  6 35  1  0
  6 33  1  0
  7 36  1  0
  7 34  1  0
 10 16  1  0
 10 15  1  0
 11 10  2  0
 12 11  1  0
 12 13  2  0
 13  1  1  0
 13 14  1  0
 14 15  2  0
 14 19  1  0
 15 20  1  0
 17 11  1  0
 18 12  1  0
 21 22  1  0
 22 28  1  0
 22 23  2  0
 23 29  1  0
 24 23  1  0
 24  3  1  0
 25 24  2  0
 26 21  2  0
 26 25  1  0
 27 21  1  0
 30 25  1  0
 31 26  1  0
 32 47  1  0
 32 48  1  0
 33 50  1  0
 33 32  1  0
 34 32  1  0
 34 52  1  0
 35 39  1  0
 36 40  2  0
 36 38  1  0
 37 35  2  0
 37 41  1  0
 38 42  2  0
 39 43  2  0
 40 44  1  0
 41 45  2  0
 42 46  1  0
 42 60  1  0
 43 61  1  0
 44 62  1  0
 44 46  2  0
 45 43  1  0
 45 63  1  0
 46 64  1  0
 49 33  1  0
 51 34  1  0
 53  6  1  0
 54  7  1  0
 55 37  1  0
 56 38  1  0
 57 39  1  0
 58 40  1  0
 59 41  1  0
M  END
>  <Energy>  (7) 
-1973.1011420000002

$$$$
