14_cs_CONF_0008.xyz
     RDKit          3D

109113  0  0  1  0  0  0  0  0999 V2000
   -1.6047    1.2783   -1.9072 C   0  0  0  0  0  3  0  0  0  0  0  0
   -2.4165    1.5968   -0.7841 C   0  0  1  0  0  0  0  0  0  0  0  0
   -1.9344    2.4717    0.2181 C   0  0  0  0  0  3  0  0  0  0  0  0
   -3.3787    1.0900   -0.6444 H   0  0  0  0  0  0  0  0  0  0  0  0
   -0.6346    0.5668    0.0210 Pd  0  0  0  0  0  1  0  0  0  0  0  0
   -0.0488    0.6000    2.3007 P   0  0  0  0  0  0  0  0  0  0  0  0
    0.7354   -1.0724   -0.9352 P   0  0  0  0  0  0  0  0  0  0  0  0
   -0.8247    2.0120   -2.1552 H   0  0  0  0  0  0  0  0  0  0  0  0
   -1.0886    3.1163   -0.0601 H   0  0  0  0  0  0  0  0  0  0  0  0
   -2.6853   -1.1843   -5.2715 C   0  0  0  0  0  0  0  0  0  0  0  0
   -3.4416   -1.2545   -4.0899 C   0  0  0  0  0  0  0  0  0  0  0  0
   -3.1124   -0.4562   -2.9892 C   0  0  0  0  0  0  0  0  0  0  0  0
   -2.0103    0.4281   -3.0409 C   0  0  0  0  0  0  0  0  0  0  0  0
   -1.2761    0.5075   -4.2487 C   0  0  0  0  0  0  0  0  0  0  0  0
   -1.6070   -0.2899   -5.3502 C   0  0  0  0  0  0  0  0  0  0  0  0
   -2.9439   -1.8128   -6.1295 H   0  0  0  0  0  0  0  0  0  0  0  0
   -4.2969   -1.9356   -4.0275 H   0  0  0  0  0  0  0  0  0  0  0  0
   -3.7140   -0.5307   -2.0783 H   0  0  0  0  0  0  0  0  0  0  0  0
   -0.4437    1.2168   -4.3238 H   0  0  0  0  0  0  0  0  0  0  0  0
   -1.0228   -0.2126   -6.2724 H   0  0  0  0  0  0  0  0  0  0  0  0
   -4.1542    4.0481    3.5361 C   0  0  0  0  0  0  0  0  0  0  0  0
   -2.8954    4.5687    3.2029 C   0  0  0  0  0  0  0  0  0  0  0  0
   -2.1700    4.0205    2.1388 C   0  0  0  0  0  0  0  0  0  0  0  0
   -2.6912    2.9424    1.3852 C   0  0  0  0  0  0  0  0  0  0  0  0
   -3.9494    2.4094    1.7520 C   0  0  0  0  0  0  0  0  0  0  0  0
   -4.6735    2.9620    2.8108 C   0  0  0  0  0  0  0  0  0  0  0  0
   -4.7287    4.4812    4.3615 H   0  0  0  0  0  0  0  0  0  0  0  0
   -2.4794    5.4093    3.7677 H   0  0  0  0  0  0  0  0  0  0  0  0
   -1.1899    4.4334    1.8772 H   0  0  0  0  0  0  0  0  0  0  0  0
   -4.3693    1.5595    1.2057 H   0  0  0  0  0  0  0  0  0  0  0  0
   -5.6483    2.5417    3.0770 H   0  0  0  0  0  0  0  0  0  0  0  0
    3.5105    0.7268    3.5713 O   0  0  0  0  0  0  0  0  0  0  0  0
    2.8949   -0.4092    1.6787 N   0  0  0  0  0  0  0  0  0  0  0  0
    4.5291    1.2801    1.5894 N   0  0  0  0  0  0  0  0  0  0  0  0
    2.1010   -1.9145    0.0421 C   0  0  2  0  0  0  0  0  0  0  0  0
   -0.3602   -2.4050   -1.7144 C   0  0  2  0  0  0  0  0  0  0  0  0
    1.6780   -0.3483   -2.4181 C   0  0  2  0  0  0  0  0  0  0  0  0
    1.6688   -2.4365    1.4308 C   0  0  0  0  0  0  0  0  0  0  0  0
    2.0933   -1.3645    2.4669 C   0  0  2  0  0  0  0  0  0  0  0  0
    3.2734   -0.9781    0.3863 C   0  0  0  0  0  0  0  0  0  0  0  0
   -1.6971   -2.6259   -0.9605 C   0  0  0  0  0  0  0  0  0  0  0  0
    0.2837   -3.7582   -2.1083 C   0  0  0  0  0  0  0  0  0  0  0  0
    2.8568   -1.1860   -2.8559 C   0  0  0  0  0  0  0  0  0  0  0  0
    2.0616    1.1339   -2.1641 C   0  0  0  0  0  0  0  0  0  0  0  0
   -1.6444   -3.6691    0.1633 C   0  0  0  0  0  0  0  0  0  0  0  0
    0.3246   -4.7956   -0.9721 C   0  0  0  0  0  0  0  0  0  0  0  0
    4.0813   -0.6850   -3.1160 C   0  0  0  0  0  0  0  0  0  0  0  0
    3.1172    1.6293   -3.1634 C   0  0  0  0  0  0  0  0  0  0  0  0
   -1.0593   -5.0004   -0.3341 C   0  0  0  0  0  0  0  0  0  0  0  0
    4.3995    0.7886   -3.0654 C   0  0  0  0  0  0  0  0  0  0  0  0
    0.9214   -0.7122    3.2138 C   0  0  0  0  0  0  0  0  0  0  0  0
    3.6621    0.5312    2.3666 C   0  0  0  0  0  0  0  0  0  0  0  0
    0.8405    2.1591    2.6789 C   0  0  0  0  0  0  0  0  0  0  0  0
   -1.6003    0.5133    3.2934 C   0  0  0  0  0  0  0  0  0  0  0  0
    1.1545   -2.5102   -5.7163 C   0  0  0  0  0  0  0  0  0  0  0  0
    1.1556    2.5574    3.9944 C   0  0  0  0  0  0  0  0  0  0  0  0
   -1.9426    1.3805    4.3452 C   0  0  0  0  0  0  0  0  0  0  0  0
    1.2861    2.9498    1.6006 C   0  0  0  0  0  0  0  0  0  0  0  0
   -2.4692   -0.5530    2.9673 C   0  0  0  0  0  0  0  0  0  0  0  0
    1.8481    3.7526    4.2224 C   0  0  0  0  0  0  0  0  0  0  0  0
   -3.1208    1.1658    5.0763 C   0  0  0  0  0  0  0  0  0  0  0  0
    1.9898    4.1392    1.8292 C   0  0  0  0  0  0  0  0  0  0  0  0
   -3.6424   -0.7643    3.7018 C   0  0  0  0  0  0  0  0  0  0  0  0
    2.2581    4.5499    3.1431 C   0  0  0  0  0  0  0  0  0  0  0  0
   -3.9668    0.0929    4.7652 C   0  0  0  0  0  0  0  0  0  0  0  0
    2.4554   -2.7326   -0.6053 H   0  0  0  0  0  0  0  0  0  0  0  0
   -0.6204   -1.8687   -2.6468 H   0  0  0  0  0  0  0  0  0  0  0  0
    0.9079   -0.3881   -3.2138 H   0  0  0  0  0  0  0  0  0  0  0  0
    0.5889   -2.6399    1.4887 H   0  0  0  0  0  0  0  0  0  0  0  0
    2.1839   -3.3885    1.6407 H   0  0  0  0  0  0  0  0  0  0  0  0
    2.7331   -1.8266    3.2436 H   0  0  0  0  0  0  0  0  0  0  0  0
    4.2085   -1.5761    0.4550 H   0  0  0  0  0  0  0  0  0  0  0  0
    3.4411   -0.1909   -0.3620 H   0  0  0  0  0  0  0  0  0  0  0  0
   -2.0664   -1.6562   -0.5747 H   0  0  0  0  0  0  0  0  0  0  0  0
   -2.4309   -2.9631   -1.7160 H   0  0  0  0  0  0  0  0  0  0  0  0
   -0.3330   -4.1689   -2.9309 H   0  0  0  0  0  0  0  0  0  0  0  0
    1.2894   -3.6134   -2.5387 H   0  0  0  0  0  0  0  0  0  0  0  0
    4.9276    0.8991    0.7341 H   0  0  0  0  0  0  0  0  0  0  0  0
    2.6850   -2.2594   -2.9938 H   0  0  0  0  0  0  0  0  0  0  0  0
    1.1551    1.7582   -2.2214 H   0  0  0  0  0  0  0  0  0  0  0  0
    2.4481    1.2660   -1.1356 H   0  0  0  0  0  0  0  0  0  0  0  0
   -1.0374   -3.2863    1.0060 H   0  0  0  0  0  0  0  0  0  0  0  0
   -2.6616   -3.8205    0.5670 H   0  0  0  0  0  0  0  0  0  0  0  0
    1.0416   -4.4833   -0.1917 H   0  0  0  0  0  0  0  0  0  0  0  0
    0.7058   -5.7516   -1.3726 H   0  0  0  0  0  0  0  0  0  0  0  0
    1.8639   -3.3309   -5.5241 H   0  0  0  0  0  0  0  0  0  0  0  0
    4.8800   -1.3721   -3.4237 H   0  0  0  0  0  0  0  0  0  0  0  0
    3.3348    2.6963   -2.9817 H   0  0  0  0  0  0  0  0  0  0  0  0
    2.7138    1.5515   -4.1911 H   0  0  0  0  0  0  0  0  0  0  0  0
   -1.7456   -5.4366   -1.0861 H   0  0  0  0  0  0  0  0  0  0  0  0
   -0.9950   -5.7282    0.4941 H   0  0  0  0  0  0  0  0  0  0  0  0
    4.9455    1.0309   -2.1278 H   0  0  0  0  0  0  0  0  0  0  0  0
    5.0981    1.0457   -3.8823 H   0  0  0  0  0  0  0  0  0  0  0  0
    1.2966   -0.2139    4.1226 H   0  0  0  0  0  0  0  0  0  0  0  0
    0.1998   -1.4873    3.5233 H   0  0  0  0  0  0  0  0  0  0  0  0
    5.1512    1.8771    2.1312 H   0  0  0  0  0  0  0  0  0  0  0  0
    0.3726   -2.5043   -4.9410 H   0  0  0  0  0  0  0  0  0  0  0  0
    0.6855   -2.6542   -6.7025 H   0  0  0  0  0  0  0  0  0  0  0  0
    1.6941   -1.5499   -5.6992 H   0  0  0  0  0  0  0  0  0  0  0  0
    0.8838    1.9288    4.8476 H   0  0  0  0  0  0  0  0  0  0  0  0
   -1.3104    2.2381    4.5864 H   0  0  0  0  0  0  0  0  0  0  0  0
    1.0916    2.6130    0.5752 H   0  0  0  0  0  0  0  0  0  0  0  0
   -2.2223   -1.2209    2.1320 H   0  0  0  0  0  0  0  0  0  0  0  0
    2.0833    4.0531    5.2483 H   0  0  0  0  0  0  0  0  0  0  0  0
   -3.3797    1.8525    5.8885 H   0  0  0  0  0  0  0  0  0  0  0  0
    2.3331    4.7412    0.9814 H   0  0  0  0  0  0  0  0  0  0  0  0
   -4.3043   -1.5974    3.4430 H   0  0  0  0  0  0  0  0  0  0  0  0
    2.8034    5.4816    3.3267 H   0  0  0  0  0  0  0  0  0  0  0  0
   -4.8830   -0.0698    5.3421 H   0  0  0  0  0  0  0  0  0  0  0  0
  1  2  1  0
  2  4  1  6
  2  5  1  0
  2  3  1  0
  3 24  1  0
  6 53  1  0
  6 51  1  0
  6 54  1  0
  7 36  1  0
  7 35  1  0
  8  1  1  0
  9  3  1  0
 10 11  1  0
 11 17  1  0
 11 12  2  0
 12 18  1  0
 13 12  1  0
 13  1  1  0
 14 13  2  0
 15 10  2  0
 15 14  1  0
 16 10  1  0
 19 14  1  0
 20 15  1  0
 21 27  1  0
 22 21  1  0
 22 28  1  0
 23 22  2  0
 24 25  2  0
 24 23  1  0
 25 26  1  0
 26 31  1  0
 26 21  2  0
 29 23  1  0
 30 25  1  0
 33 52  1  0
 33 39  1  0
 34 96  1  0
 34 52  1  0
 35 66  1  6
 35 40  1  0
 35 38  1  0
 36 41  1  0
 37 68  1  6
 37 44  1  0
 37  7  1  0
 38 69  1  0
 38 70  1  0
 38 39  1  0
 39 51  1  0
 39 71  1  1
 40 72  1  0
 40 33  1  0
 41 74  1  0
 41 45  1  0
 42 36  1  0
 42 46  1  0
 43 37  1  0
 44 81  1  0
 45 83  1  0
 45 82  1  0
 46 49  1  0
 46 84  1  0
 47 50  1  0
 47 43  2  0
 48 50  1  0
 48 88  1  0
 48 44  1  0
 49 45  1  0
 49 91  1  0
 50 92  1  0
 51 95  1  0
 51 94  1  0
 52 32  2  0
 53 56  1  0
 54 57  1  0
 55 99  1  0
 55 86  1  0
 55 97  1  0
 56 60  2  0
 56100  1  0
 57101  1  0
 57 61  2  0
 58 62  1  0
 58 53  2  0
 59 54  2  0
 59 63  1  0
 60104  1  0
 61105  1  0
 62 64  2  0
 63 65  2  0
 64108  1  0
 64 60  1  0
 65 61  1  0
 65109  1  0
 36 67  1  6
 73 40  1  0
 75 41  1  0
 76 42  1  0
 77 42  1  0
 78 34  1  0
 79 43  1  0
 80 44  1  0
 85 46  1  0
 87 47  1  0
 89 48  1  0
 90 49  1  0
 93 50  1  0
 98 55  1  0
102 58  1  0
103 59  1  0
106 62  1  0
107 63  1  0
M  END
>  <Energy>  (1) 
-2783.71078

$$$$
14_cs_CONF_0009.xyz
     RDKit          3D

109113  0  0  1  0  0  0  0  0999 V2000
   -1.6652    0.9782   -1.9740 C   0  0  0  0  0  3  0  0  0  0  0  0
   -2.4425    1.4980   -0.8946 C   0  0  1  0  0  0  0  0  0  0  0  0
   -1.9126    2.4975   -0.0489 C   0  0  0  0  0  3  0  0  0  0  0  0
   -3.4047    1.0360   -0.6437 H   0  0  0  0  0  0  0  0  0  0  0  0
   -0.6513    0.5537   -0.0203 Pd  0  0  0  0  0  1  0  0  0  0  0  0
   -0.1532    0.6085    2.2694 P   0  0  0  0  0  0  0  0  0  0  0  0
    0.8168   -1.0759   -0.7954 P   0  0  0  0  0  0  0  0  0  0  0  0
   -0.9195    1.6602   -2.4058 H   0  0  0  0  0  0  0  0  0  0  0  0
   -1.0409    3.0514   -0.4292 H   0  0  0  0  0  0  0  0  0  0  0  0
   -2.8294   -2.1871   -4.6600 C   0  0  0  0  0  0  0  0  0  0  0  0
   -1.7796   -1.3152   -4.9877 C   0  0  0  0  0  0  0  0  0  0  0  0
   -1.4300   -0.2787   -4.1137 C   0  0  0  0  0  0  0  0  0  0  0  0
   -2.1065   -0.0973   -2.8840 C   0  0  0  0  0  0  0  0  0  0  0  0
   -3.1777   -0.9700   -2.5814 C   0  0  0  0  0  0  0  0  0  0  0  0
   -3.5348   -1.9991   -3.4597 C   0  0  0  0  0  0  0  0  0  0  0  0
   -3.1069   -2.9980   -5.3409 H   0  0  0  0  0  0  0  0  0  0  0  0
   -1.2366   -1.4356   -5.9303 H   0  0  0  0  0  0  0  0  0  0  0  0
   -0.6252    0.4123   -4.3891 H   0  0  0  0  0  0  0  0  0  0  0  0
   -3.7376   -0.8488   -1.6483 H   0  0  0  0  0  0  0  0  0  0  0  0
   -4.3684   -2.6619   -3.2055 H   0  0  0  0  0  0  0  0  0  0  0  0
   -3.9000    4.5735    3.1399 C   0  0  0  0  0  0  0  0  0  0  0  0
   -2.6002    4.9302    2.7519 C   0  0  0  0  0  0  0  0  0  0  0  0
   -1.9589    4.2271    1.7262 C   0  0  0  0  0  0  0  0  0  0  0  0
   -2.6027    3.1516    1.0694 C   0  0  0  0  0  0  0  0  0  0  0  0
   -3.9049    2.7901    1.4872 C   0  0  0  0  0  0  0  0  0  0  0  0
   -4.5461    3.4984    2.5063 C   0  0  0  0  0  0  0  0  0  0  0  0
   -4.4095    5.1281    3.9346 H   0  0  0  0  0  0  0  0  0  0  0  0
   -2.0872    5.7633    3.2432 H   0  0  0  0  0  0  0  0  0  0  0  0
   -0.9465    4.5131    1.4221 H   0  0  0  0  0  0  0  0  0  0  0  0
   -4.4273    1.9572    1.0075 H   0  0  0  0  0  0  0  0  0  0  0  0
   -5.5569    3.2103    2.8116 H   0  0  0  0  0  0  0  0  0  0  0  0
    3.2719    0.1173    4.4784 O   0  0  0  0  0  0  0  0  0  0  0  0
    2.8662   -0.5214    2.3236 N   0  0  0  0  0  0  0  0  0  0  0  0
    4.4236    1.1665    2.7917 N   0  0  0  0  0  0  0  0  0  0  0  0
    2.2111   -1.6402    0.3143 C   0  0  2  0  0  0  0  0  0  0  0  0
   -0.1350   -2.6115   -1.2750 C   0  0  2  0  0  0  0  0  0  0  0  0
    1.7218   -0.4968   -2.3581 C   0  0  2  0  0  0  0  0  0  0  0  0
    1.7923   -2.4598    1.5620 C   0  0  0  0  0  0  0  0  0  0  0  0
    1.8646   -1.4961    2.7574 C   0  0  2  0  0  0  0  0  0  0  0  0
    3.0471   -0.4550    0.8769 C   0  0  0  0  0  0  0  0  0  0  0  0
   -1.2935   -2.8626   -0.2576 C   0  0  0  0  0  0  0  0  0  0  0  0
    0.6702   -3.9060   -1.5171 C   0  0  0  0  0  0  0  0  0  0  0  0
    2.9461   -1.3175   -2.6923 C   0  0  0  0  0  0  0  0  0  0  0  0
    2.0439    1.0177   -2.2834 C   0  0  0  0  0  0  0  0  0  0  0  0
   -1.7606   -4.3359   -0.2665 C   0  0  0  0  0  0  0  0  0  0  0  0
   -0.2285   -4.9716   -2.1936 C   0  0  0  0  0  0  0  0  0  0  0  0
    4.1366   -0.7857   -3.0367 C   0  0  0  0  0  0  0  0  0  0  0  0
    3.0375    1.4421   -3.3745 C   0  0  0  0  0  0  0  0  0  0  0  0
   -1.6921   -4.9177   -1.6861 C   0  0  0  0  0  0  0  0  0  0  0  0
    4.3692    0.6936   -3.2122 C   0  0  0  0  0  0  0  0  0  0  0  0
    0.5330   -0.8568    3.2094 C   0  0  0  0  0  0  0  0  0  0  0  0
    3.5271    0.2374    3.2786 C   0  0  0  0  0  0  0  0  0  0  0  0
    0.9191    2.0283    2.7059 C   0  0  0  0  0  0  0  0  0  0  0  0
   -1.7380    0.7660    3.1957 C   0  0  0  0  0  0  0  0  0  0  0  0
    1.7471   -0.9373   -6.3686 C   0  0  0  0  0  0  0  0  0  0  0  0
    1.3079    2.3130    4.0316 C   0  0  0  0  0  0  0  0  0  0  0  0
   -1.9783    1.7200    4.1997 C   0  0  0  0  0  0  0  0  0  0  0  0
    1.3829    2.8553    1.6604 C   0  0  0  0  0  0  0  0  0  0  0  0
   -2.7391   -0.1817    2.8851 C   0  0  0  0  0  0  0  0  0  0  0  0
    2.1224    3.4209    4.3003 C   0  0  0  0  0  0  0  0  0  0  0  0
   -3.1903    1.7018    4.9059 C   0  0  0  0  0  0  0  0  0  0  0  0
    2.1975    3.9611    1.9328 C   0  0  0  0  0  0  0  0  0  0  0  0
   -3.9450   -0.1974    3.5968 C   0  0  0  0  0  0  0  0  0  0  0  0
    2.5617    4.2488    3.2567 C   0  0  0  0  0  0  0  0  0  0  0  0
   -4.1684    0.7407    4.6167 C   0  0  0  0  0  0  0  0  0  0  0  0
    2.8476   -2.2567   -0.3406 H   0  0  0  0  0  0  0  0  0  0  0  0
   -0.5923   -2.3091   -2.2376 H   0  0  0  0  0  0  0  0  0  0  0  0
    0.9525   -0.6676   -3.1371 H   0  0  0  0  0  0  0  0  0  0  0  0
    0.8078   -2.9409    1.4712 H   0  0  0  0  0  0  0  0  0  0  0  0
    2.5305   -3.2658    1.7102 H   0  0  0  0  0  0  0  0  0  0  0  0
    2.2557   -2.0178    3.6474 H   0  0  0  0  0  0  0  0  0  0  0  0
    4.1124   -0.5709    0.5957 H   0  0  0  0  0  0  0  0  0  0  0  0
    2.7050    0.5248    0.4864 H   0  0  0  0  0  0  0  0  0  0  0  0
   -0.9922   -2.5738    0.7656 H   0  0  0  0  0  0  0  0  0  0  0  0
   -2.1302   -2.1947   -0.5237 H   0  0  0  0  0  0  0  0  0  0  0  0
    1.5551   -3.7237   -2.1475 H   0  0  0  0  0  0  0  0  0  0  0  0
    1.0492   -4.2857   -0.5511 H   0  0  0  0  0  0  0  0  0  0  0  0
    4.8370    1.0789    1.8669 H   0  0  0  0  0  0  0  0  0  0  0  0
    2.8439   -2.4086   -2.6770 H   0  0  0  0  0  0  0  0  0  0  0  0
    1.1096    1.5980   -2.3582 H   0  0  0  0  0  0  0  0  0  0  0  0
    2.4771    1.2614   -1.2955 H   0  0  0  0  0  0  0  0  0  0  0  0
   -1.1236   -4.9382    0.4092 H   0  0  0  0  0  0  0  0  0  0  0  0
   -2.7856   -4.3984    0.1395 H   0  0  0  0  0  0  0  0  0  0  0  0
    0.2077   -5.9688   -2.0053 H   0  0  0  0  0  0  0  0  0  0  0  0
   -0.2107   -4.8215   -3.2881 H   0  0  0  0  0  0  0  0  0  0  0  0
    1.6875   -1.4942   -5.4203 H   0  0  0  0  0  0  0  0  0  0  0  0
    4.9726   -1.4632   -3.2536 H   0  0  0  0  0  0  0  0  0  0  0  0
    3.1962    2.5338   -3.3350 H   0  0  0  0  0  0  0  0  0  0  0  0
    2.6107    1.2115   -4.3683 H   0  0  0  0  0  0  0  0  0  0  0  0
   -2.2963   -4.2794   -2.3569 H   0  0  0  0  0  0  0  0  0  0  0  0
   -2.1448   -5.9234   -1.7191 H   0  0  0  0  0  0  0  0  0  0  0  0
    4.9346    1.0939   -2.3444 H   0  0  0  0  0  0  0  0  0  0  0  0
    5.0201    0.8616   -4.0897 H   0  0  0  0  0  0  0  0  0  0  0  0
    0.6562   -0.4895    4.2432 H   0  0  0  0  0  0  0  0  0  0  0  0
   -0.2715   -1.6132    3.2295 H   0  0  0  0  0  0  0  0  0  0  0  0
    5.0025    1.6079    3.5021 H   0  0  0  0  0  0  0  0  0  0  0  0
    1.2996   -1.5341   -7.1792 H   0  0  0  0  0  0  0  0  0  0  0  0
    2.8038   -0.7341   -6.6034 H   0  0  0  0  0  0  0  0  0  0  0  0
    1.2038    0.0173   -6.2750 H   0  0  0  0  0  0  0  0  0  0  0  0
    1.0044    1.6632    4.8566 H   0  0  0  0  0  0  0  0  0  0  0  0
   -1.2331    2.4874    4.4252 H   0  0  0  0  0  0  0  0  0  0  0  0
    1.0994    2.6191    0.6270 H   0  0  0  0  0  0  0  0  0  0  0  0
   -2.5697   -0.9111    2.0823 H   0  0  0  0  0  0  0  0  0  0  0  0
    2.4237    3.6278    5.3320 H   0  0  0  0  0  0  0  0  0  0  0  0
   -3.3697    2.4518    5.6829 H   0  0  0  0  0  0  0  0  0  0  0  0
    2.5497    4.5956    1.1127 H   0  0  0  0  0  0  0  0  0  0  0  0
   -4.7106   -0.9423    3.3554 H   0  0  0  0  0  0  0  0  0  0  0  0
    3.1978    5.1132    3.4747 H   0  0  0  0  0  0  0  0  0  0  0  0
   -5.1094    0.7292    5.1763 H   0  0  0  0  0  0  0  0  0  0  0  0
  1  2  1  0
  2  4  1  6
  2  3  1  0
  2  5  1  0
  3 24  1  0
  6 53  1  0
  6 54  1  0
  6 51  1  0
  7 36  1  0
  7 35  1  0
  8  1  1  0
  9  3  1  0
 10 15  1  0
 11 10  2  0
 11 12  1  0
 12 13  2  0
 13 14  1  0
 13  1  1  0
 14 19  1  0
 15 20  1  0
 15 14  2  0
 16 10  1  0
 17 11  1  0
 18 12  1  0
 21 27  1  0
 22 21  1  0
 22 28  1  0
 23 22  2  0
 24 25  2  0
 24 23  1  0
 25 26  1  0
 26 31  1  0
 26 21  2  0
 29 23  1  0
 30 25  1  0
 33 39  1  0
 33 52  1  0
 34 52  1  0
 34 96  1  0
 35 66  1  6
 35 40  1  0
 35 38  1  0
 36 41  1  0
 37 68  1  6
 37 44  1  0
 37  7  1  0
 38 70  1  0
 38 39  1  0
 39 51  1  0
 39 71  1  1
 40 33  1  0
 41 74  1  0
 42 36  1  0
 42 77  1  0
 43 79  1  0
 43 37  1  0
 44 81  1  0
 45 41  1  0
 45 83  1  0
 45 82  1  0
 46 84  1  0
 46 49  1  0
 46 42  1  0
 47 43  2  0
 48 88  1  0
 48 50  1  0
 48 44  1  0
 49 45  1  0
 50 47  1  0
 50 92  1  0
 51 95  1  0
 51 94  1  0
 52 32  2  0
 53 56  1  0
 54 57  1  0
 55 99  1  0
 55 86  1  0
 56 60  2  0
 56100  1  0
 57101  1  0
 57 61  2  0
 58 62  1  0
 58 53  2  0
 59 54  2  0
 59 63  1  0
 60104  1  0
 61105  1  0
 62 64  2  0
 63 65  2  0
 64108  1  0
 64 60  1  0
 65 61  1  0
 65109  1  0
 36 67  1  6
 69 38  1  0
 72 40  1  0
 73 40  1  0
 75 41  1  0
 76 42  1  0
 78 34  1  0
 80 44  1  0
 85 46  1  0
 87 47  1  0
 89 48  1  0
 90 49  1  0
 91 49  1  0
 93 50  1  0
 97 55  1  0
 98 55  1  0
102 58  1  0
103 59  1  0
106 62  1  0
107 63  1  0
M  END
>  <Energy>  (2) 
-2783.7100370000003

$$$$
