179_cs_CONF_0001.xyz
     RDKit          3D

 41 41  0  0  0  0  0  0  0  0999 V2000
    0.1466   -0.6320   -1.8219 C   0  0  0  0  0  3  0  0  0  0  0  0
    0.8751    0.4223   -1.2021 C   0  0  0  0  0  0  0  0  0  0  0  0
    1.9055    0.1144   -0.2690 C   0  0  0  0  0  3  0  0  0  0  0  0
    0.5262    1.4571   -1.3047 H   0  0  0  0  0  0  0  0  0  0  0  0
   -0.0179   -0.7905    0.3984 Pd  0  0  0  0  0  1  0  0  0  0  0  0
    0.1711   -0.7803    2.7260 P   0  0  0  0  0  0  0  0  0  0  0  0
   -2.1085   -1.7774    0.7211 P   0  0  0  0  0  0  0  0  0  0  0  0
    0.6722   -1.5930   -1.9409 H   0  0  0  0  0  0  0  0  0  0  0  0
    2.4202   -0.8510   -0.4003 H   0  0  0  0  0  0  0  0  0  0  0  0
   -3.3076   -0.2334   -4.3496 C   0  0  0  0  0  0  0  0  0  0  0  0
   -2.5267   -1.3984   -4.3823 C   0  0  0  0  0  0  0  0  0  0  0  0
   -1.4064   -1.5145   -3.5508 C   0  0  0  0  0  0  0  0  0  0  0  0
   -1.0430   -0.4647   -2.6763 C   0  0  0  0  0  0  0  0  0  0  0  0
   -1.8447    0.7011   -2.6474 C   0  0  0  0  0  0  0  0  0  0  0  0
   -2.9633    0.8145   -3.4781 C   0  0  0  0  0  0  0  0  0  0  0  0
   -4.1833   -0.1402   -4.9999 H   0  0  0  0  0  0  0  0  0  0  0  0
   -2.7880   -2.2166   -5.0610 H   0  0  0  0  0  0  0  0  0  0  0  0
   -0.7947   -2.4234   -3.5845 H   0  0  0  0  0  0  0  0  0  0  0  0
   -1.5997    1.5209   -1.9632 H   0  0  0  0  0  0  0  0  0  0  0  0
   -3.5726    1.7236   -3.4478 H   0  0  0  0  0  0  0  0  0  0  0  0
    4.0779    2.9052    2.1760 C   0  0  0  0  0  0  0  0  0  0  0  0
    4.5948    1.6273    1.9157 C   0  0  0  0  0  0  0  0  0  0  0  0
    3.8744    0.7287    1.1198 C   0  0  0  0  0  0  0  0  0  0  0  0
    2.6264    1.0941    0.5647 C   0  0  0  0  0  0  0  0  0  0  0  0
    2.1131    2.3834    0.8423 C   0  0  0  0  0  0  0  0  0  0  0  0
    2.8342    3.2789    1.6375 C   0  0  0  0  0  0  0  0  0  0  0  0
    4.6403    3.6098    2.7969 H   0  0  0  0  0  0  0  0  0  0  0  0
    5.5642    1.3316    2.3294 H   0  0  0  0  0  0  0  0  0  0  0  0
    4.2852   -0.2662    0.9127 H   0  0  0  0  0  0  0  0  0  0  0  0
    1.1386    2.6858    0.4435 H   0  0  0  0  0  0  0  0  0  0  0  0
    2.4266    4.2744    1.8409 H   0  0  0  0  0  0  0  0  0  0  0  0
   -1.2855   -1.7387    3.4152 C   0  0  0  0  0  0  0  0  0  0  0  0
   -2.5357   -1.5476    2.5319 C   0  0  0  0  0  0  0  0  0  0  0  0
   -0.9756   -2.8000    3.4262 H   0  0  0  0  0  0  0  0  0  0  0  0
   -1.4903   -1.4441    4.4586 H   0  0  0  0  0  0  0  0  0  0  0  0
   -3.3414   -2.2378    2.8346 H   0  0  0  0  0  0  0  0  0  0  0  0
   -2.9273   -0.5181    2.6263 H   0  0  0  0  0  0  0  0  0  0  0  0
    0.0657    0.4920    3.3459 H   0  0  0  0  0  0  0  0  0  0  0  0
    1.2756   -1.2956    3.4503 H   0  0  0  0  0  0  0  0  0  0  0  0
   -3.2667   -1.3252    0.0398 H   0  0  0  0  0  0  0  0  0  0  0  0
   -2.2550   -3.1763    0.5264 H   0  0  0  0  0  0  0  0  0  0  0  0
  1  2  1  0
  2  3  1  0
  2  5  1  0
  3 24  1  0
  4  2  1  0
  6 38  1  0
  6 32  1  0
  6 39  1  0
  7 33  1  0
  8  1  1  0
  9  3  1  0
 10 15  1  0
 11 10  2  0
 11 12  1  0
 12 13  2  0
 13 14  1  0
 13  1  1  0
 14 19  1  0
 15 20  1  0
 15 14  2  0
 16 10  1  0
 17 11  1  0
 18 12  1  0
 21 27  1  0
 22 21  1  0
 22 28  1  0
 23 22  2  0
 24 25  2  0
 24 23  1  0
 25 26  1  0
 26 31  1  0
 26 21  2  0
 29 23  1  0
 30 25  1  0
 32 34  1  0
 32 35  1  0
 33 37  1  0
 33 36  1  0
 33 32  1  0
 40  7  1  0
 41  7  1  0
M  END
>  <Energy>  (1) 
-1471.3649369999998

$$$$
179_cs_CONF_0002.xyz
     RDKit          3D

 41 41  0  0  0  0  0  0  0  0999 V2000
    0.7721    1.7223    0.4047 C   0  0  0  0  0  3  0  0  0  0  0  0
    0.3564    1.2358   -0.8669 C   0  0  0  0  0  0  0  0  0  0  0  0
   -1.0320    1.1478   -1.1692 C   0  0  0  0  0  3  0  0  0  0  0  0
    1.0883    0.7647   -1.5343 H   0  0  0  0  0  0  0  0  0  0  0  0
   -0.5744   -0.0341    0.6675 Pd  0  0  0  0  0  1  0  0  0  0  0  0
   -2.1673   -1.7394    0.6302 P   0  0  0  0  0  0  0  0  0  0  0  0
    0.2099   -1.0123    2.6374 P   0  0  0  0  0  0  0  0  0  0  0  0
    0.0941    2.4286    0.9104 H   0  0  0  0  0  0  0  0  0  0  0  0
   -1.6968    1.8591   -0.6532 H   0  0  0  0  0  0  0  0  0  0  0  0
    4.7767    1.7666    1.9692 C   0  0  0  0  0  0  0  0  0  0  0  0
    3.7826    2.5886    2.5209 C   0  0  0  0  0  0  0  0  0  0  0  0
    2.4831    2.5618    2.0007 C   0  0  0  0  0  0  0  0  0  0  0  0
    2.1551    1.7160    0.9161 C   0  0  0  0  0  0  0  0  0  0  0  0
    3.1659    0.8866    0.3745 C   0  0  0  0  0  0  0  0  0  0  0  0
    4.4630    0.9155    0.8952 C   0  0  0  0  0  0  0  0  0  0  0  0
    5.7939    1.7871    2.3733 H   0  0  0  0  0  0  0  0  0  0  0  0
    4.0215    3.2562    3.3550 H   0  0  0  0  0  0  0  0  0  0  0  0
    1.7110    3.2109    2.4298 H   0  0  0  0  0  0  0  0  0  0  0  0
    2.9363    0.2069   -0.4533 H   0  0  0  0  0  0  0  0  0  0  0  0
    5.2360    0.2716    0.4634 H   0  0  0  0  0  0  0  0  0  0  0  0
   -2.8065   -0.6502   -4.6479 C   0  0  0  0  0  0  0  0  0  0  0  0
   -3.5300    0.2612   -3.8642 C   0  0  0  0  0  0  0  0  0  0  0  0
   -2.9382    0.8374   -2.7338 C   0  0  0  0  0  0  0  0  0  0  0  0
   -1.6103    0.5163   -2.3692 C   0  0  0  0  0  0  0  0  0  0  0  0
   -0.8953   -0.4107   -3.1641 C   0  0  0  0  0  0  0  0  0  0  0  0
   -1.4879   -0.9843   -4.2929 C   0  0  0  0  0  0  0  0  0  0  0  0
   -3.2667   -1.1006   -5.5332 H   0  0  0  0  0  0  0  0  0  0  0  0
   -4.5559    0.5281   -4.1374 H   0  0  0  0  0  0  0  0  0  0  0  0
   -3.5042    1.5548   -2.1285 H   0  0  0  0  0  0  0  0  0  0  0  0
    0.1280   -0.6940   -2.8943 H   0  0  0  0  0  0  0  0  0  0  0  0
   -0.9212   -1.6968   -4.9010 H   0  0  0  0  0  0  0  0  0  0  0  0
   -1.5930   -3.0356    1.8567 C   0  0  0  0  0  0  0  0  0  0  0  0
   -0.9929   -2.3699    3.1124 C   0  0  0  0  0  0  0  0  0  0  0  0
   -2.4210   -3.7128    2.1272 H   0  0  0  0  0  0  0  0  0  0  0  0
   -0.8295   -3.6382    1.3310 H   0  0  0  0  0  0  0  0  0  0  0  0
   -1.7848   -1.8816    3.7099 H   0  0  0  0  0  0  0  0  0  0  0  0
   -0.5043   -3.1173    3.7604 H   0  0  0  0  0  0  0  0  0  0  0  0
   -2.4464   -2.4841   -0.5434 H   0  0  0  0  0  0  0  0  0  0  0  0
   -3.4947   -1.4590    1.0495 H   0  0  0  0  0  0  0  0  0  0  0  0
    1.4567   -1.6825    2.5351 H   0  0  0  0  0  0  0  0  0  0  0  0
    0.4228   -0.3206    3.8565 H   0  0  0  0  0  0  0  0  0  0  0  0
  1  8  1  0
  1 13  1  0
  2  1  1  0
  2  5  1  0
  3  2  1  0
  3  9  1  0
  4  2  1  0
  6 39  1  0
  6 32  1  0
  7 33  1  0
  7 41  1  0
 10 16  1  0
 10 11  1  0
 11 17  1  0
 12 18  1  0
 12 11  2  0
 13 12  1  0
 14 15  1  0
 14 13  2  0
 15 10  2  0
 19 14  1  0
 20 15  1  0
 21 26  2  0
 21 22  1  0
 22 23  2  0
 23 24  1  0
 23 29  1  0
 24  3  1  0
 25 30  1  0
 25 24  2  0
 26 25  1  0
 27 21  1  0
 28 22  1  0
 31 26  1  0
 32 34  1  0
 32 33  1  0
 33 36  1  0
 33 37  1  0
 35 32  1  0
 38  6  1  0
 40  7  1  0
M  END
>  <Energy>  (2) 
-1471.364917

$$$$
