180_cs_CONF_0001.xyz
     RDKit          3D

 41 41  0  0  0  0  0  0  0  0999 V2000
    0.2341   -0.5804   -1.8309 C   0  0  0  0  0  3  0  0  0  0  0  0
    0.9249    0.4625   -1.1516 C   0  0  0  0  0  0  0  0  0  0  0  0
    1.9160    0.1381   -0.1822 C   0  0  0  0  0  3  0  0  0  0  0  0
    0.5709    1.4968   -1.2416 H   0  0  0  0  0  0  0  0  0  0  0  0
   -0.0262   -0.8008    0.3747 Pd  0  0  0  0  0  1  0  0  0  0  0  0
    0.0581   -0.8513    2.7078 P   0  0  0  0  0  0  0  0  0  0  0  0
   -2.1189   -1.8151    0.5763 P   0  0  0  0  0  0  0  0  0  0  0  0
    0.7733   -1.5336   -1.9527 H   0  0  0  0  0  0  0  0  0  0  0  0
    2.4451   -0.8191   -0.3159 H   0  0  0  0  0  0  0  0  0  0  0  0
   -3.1148   -0.1438   -4.4906 C   0  0  0  0  0  0  0  0  0  0  0  0
   -2.3241   -1.3023   -4.5187 C   0  0  0  0  0  0  0  0  0  0  0  0
   -1.2381   -1.4307   -3.6445 C   0  0  0  0  0  0  0  0  0  0  0  0
   -0.9194   -0.3999   -2.7308 C   0  0  0  0  0  0  0  0  0  0  0  0
   -1.7306    0.7594   -2.7076 C   0  0  0  0  0  0  0  0  0  0  0  0
   -2.8147    0.8852   -3.5811 C   0  0  0  0  0  0  0  0  0  0  0  0
   -3.9637   -0.0409   -5.1742 H   0  0  0  0  0  0  0  0  0  0  0  0
   -2.5508   -2.1057   -5.2268 H   0  0  0  0  0  0  0  0  0  0  0  0
   -0.6185   -2.3343   -3.6745 H   0  0  0  0  0  0  0  0  0  0  0  0
   -1.5204    1.5644   -1.9948 H   0  0  0  0  0  0  0  0  0  0  0  0
   -3.4317    1.7892   -3.5545 H   0  0  0  0  0  0  0  0  0  0  0  0
    3.9501    2.8797    2.4317 C   0  0  0  0  0  0  0  0  0  0  0  0
    4.4894    1.6129    2.1624 C   0  0  0  0  0  0  0  0  0  0  0  0
    3.8140    0.7303    1.3109 C   0  0  0  0  0  0  0  0  0  0  0  0
    2.5897    1.1009    0.7087 C   0  0  0  0  0  0  0  0  0  0  0  0
    2.0531    2.3786    0.9959 C   0  0  0  0  0  0  0  0  0  0  0  0
    2.7293    3.2581    1.8464 C   0  0  0  0  0  0  0  0  0  0  0  0
    4.4774    3.5718    3.0959 H   0  0  0  0  0  0  0  0  0  0  0  0
    5.4413    1.3136    2.6125 H   0  0  0  0  0  0  0  0  0  0  0  0
    4.2425   -0.2557    1.0972 H   0  0  0  0  0  0  0  0  0  0  0  0
    1.0955    2.6844    0.5604 H   0  0  0  0  0  0  0  0  0  0  0  0
    2.3044    4.2450    2.0564 H   0  0  0  0  0  0  0  0  0  0  0  0
   -2.6289   -1.6390    2.3716 C   0  0  0  0  0  0  0  0  0  0  0  0
   -1.4175   -1.8420    3.3049 C   0  0  0  0  0  0  0  0  0  0  0  0
   -3.0356   -0.6163    2.4760 H   0  0  0  0  0  0  0  0  0  0  0  0
   -3.4398   -2.3451    2.6191 H   0  0  0  0  0  0  0  0  0  0  0  0
   -1.6718   -1.5779    4.3454 H   0  0  0  0  0  0  0  0  0  0  0  0
   -1.0969   -2.9002    3.3015 H   0  0  0  0  0  0  0  0  0  0  0  0
   -2.2419   -3.2094    0.3374 H   0  0  0  0  0  0  0  0  0  0  0  0
   -3.2501   -1.3551   -0.1439 H   0  0  0  0  0  0  0  0  0  0  0  0
    1.1344   -1.3750    3.4676 H   0  0  0  0  0  0  0  0  0  0  0  0
   -0.0891    0.4028    3.3558 H   0  0  0  0  0  0  0  0  0  0  0  0
  1  2  1  0
  2  3  1  0
  2  5  1  0
  3 24  1  0
  4  2  1  0
  6 33  1  0
  6 41  1  0
  6 40  1  0
  7 32  1  0
  8  1  1  0
  9  3  1  0
 10 15  1  0
 11 10  2  0
 11 12  1  0
 12 13  2  0
 13 14  1  0
 13  1  1  0
 14 19  1  0
 15 20  1  0
 15 14  2  0
 16 10  1  0
 17 11  1  0
 18 12  1  0
 21 27  1  0
 22 21  1  0
 22 28  1  0
 23 22  2  0
 24 25  2  0
 24 23  1  0
 25 26  1  0
 26 31  1  0
 26 21  2  0
 29 23  1  0
 30 25  1  0
 32 34  1  0
 32 35  1  0
 32 33  1  0
 33 36  1  0
 37 33  1  0
 38  7  1  0
 39  7  1  0
M  END
>  <Energy>  (1) 
-1471.3649289999998

$$$$
180_cs_CONF_0002.xyz
     RDKit          3D

 41 41  0  0  0  0  0  0  0  0999 V2000
    0.7385    1.7191    0.4941 C   0  0  0  0  0  3  0  0  0  0  0  0
    0.3851    1.2669   -0.8087 C   0  0  0  0  0  0  0  0  0  0  0  0
   -0.9877    1.1720   -1.1737 C   0  0  0  0  0  3  0  0  0  0  0  0
    1.1518    0.8254   -1.4570 H   0  0  0  0  0  0  0  0  0  0  0  0
   -0.5976   -0.0618    0.6411 Pd  0  0  0  0  0  1  0  0  0  0  0  0
   -2.1431   -1.8013    0.4442 P   0  0  0  0  0  0  0  0  0  0  0  0
    0.0673   -1.0772    2.6346 P   0  0  0  0  0  0  0  0  0  0  0  0
    0.0303    2.4027    0.9894 H   0  0  0  0  0  0  0  0  0  0  0  0
   -1.6835    1.8588   -0.6654 H   0  0  0  0  0  0  0  0  0  0  0  0
    4.6699    1.7611    2.2333 C   0  0  0  0  0  0  0  0  0  0  0  0
    4.4102    0.9289    1.1304 C   0  0  0  0  0  0  0  0  0  0  0  0
    3.1374    0.9014    0.5528 C   0  0  0  0  0  0  0  0  0  0  0  0
    2.0975    1.7129    1.0654 C   0  0  0  0  0  0  0  0  0  0  0  0
    2.3708    2.5390    2.1799 C   0  0  0  0  0  0  0  0  0  0  0  0
    3.6462    2.5649    2.7568 C   0  0  0  0  0  0  0  0  0  0  0  0
    5.6682    1.7808    2.6821 H   0  0  0  0  0  0  0  0  0  0  0  0
    5.2062    0.2986    0.7210 H   0  0  0  0  0  0  0  0  0  0  0  0
    2.9491    0.2358   -0.2967 H   0  0  0  0  0  0  0  0  0  0  0  0
    1.5756    3.1738    2.5875 H   0  0  0  0  0  0  0  0  0  0  0  0
    3.8430    3.2175    3.6133 H   0  0  0  0  0  0  0  0  0  0  0  0
   -2.5905   -0.5378   -4.7782 C   0  0  0  0  0  0  0  0  0  0  0  0
   -3.3585    0.3393   -3.9978 C   0  0  0  0  0  0  0  0  0  0  0  0
   -2.8223    0.8871   -2.8264 C   0  0  0  0  0  0  0  0  0  0  0  0
   -1.5064    0.5713   -2.4164 C   0  0  0  0  0  0  0  0  0  0  0  0
   -0.7457   -0.3206   -3.2092 C   0  0  0  0  0  0  0  0  0  0  0  0
   -1.2831   -0.8659   -4.3790 C   0  0  0  0  0  0  0  0  0  0  0  0
   -3.0073   -0.9661   -5.6953 H   0  0  0  0  0  0  0  0  0  0  0  0
   -4.3759    0.6016   -4.3053 H   0  0  0  0  0  0  0  0  0  0  0  0
   -3.4228    1.5780   -2.2233 H   0  0  0  0  0  0  0  0  0  0  0  0
    0.2695   -0.5987   -2.9060 H   0  0  0  0  0  0  0  0  0  0  0  0
   -0.6817   -1.5513   -4.9848 H   0  0  0  0  0  0  0  0  0  0  0  0
   -0.6663   -2.8024    2.6278 C   0  0  0  0  0  0  0  0  0  0  0  0
   -2.0921   -2.7856    2.0390 C   0  0  0  0  0  0  0  0  0  0  0  0
    0.0069   -3.4195    2.0047 H   0  0  0  0  0  0  0  0  0  0  0  0
   -0.6644   -3.2323    3.6438 H   0  0  0  0  0  0  0  0  0  0  0  0
   -2.4652   -3.8115    1.8786 H   0  0  0  0  0  0  0  0  0  0  0  0
   -2.7930   -2.2835    2.7312 H   0  0  0  0  0  0  0  0  0  0  0  0
   -0.3774   -0.5385    3.8708 H   0  0  0  0  0  0  0  0  0  0  0  0
    1.4325   -1.2907    2.9515 H   0  0  0  0  0  0  0  0  0  0  0  0
   -3.5305   -1.6278    0.2092 H   0  0  0  0  0  0  0  0  0  0  0  0
   -1.8610   -2.7644   -0.5593 H   0  0  0  0  0  0  0  0  0  0  0  0
  1  8  1  0
  1 13  1  0
  2  1  1  0
  2  5  1  0
  3  2  1  0
  3  9  1  0
  4  2  1  0
  6 33  1  0
  7 39  1  0
  7 38  1  0
 10 16  1  0
 10 15  1  0
 11 10  2  0
 12 13  2  0
 12 11  1  0
 13 14  1  0
 14 19  1  0
 14 15  2  0
 15 20  1  0
 17 11  1  0
 18 12  1  0
 21 26  2  0
 21 22  1  0
 22 23  2  0
 23 24  1  0
 23 29  1  0
 24  3  1  0
 25 30  1  0
 25 24  2  0
 26 25  1  0
 27 21  1  0
 28 22  1  0
 31 26  1  0
 32  7  1  0
 32 35  1  0
 33 32  1  0
 33 37  1  0
 34 32  1  0
 36 33  1  0
 40  6  1  0
 41  6  1  0
M  END
>  <Energy>  (2) 
-1471.364922

$$$$
