186_cs_CONF_0001.xyz
     RDKit          3D

 79 81  0  0  0  0  0  0  0  0999 V2000
    1.8953   -1.8569   -2.1410 C   0  0  0  0  0  3  0  0  0  0  0  0
    2.7988   -0.9202   -1.5893 C   0  0  1  0  0  0  0  0  0  0  0  0
    3.1385   -0.9713   -0.2004 C   0  0  0  0  0  3  0  0  0  0  0  0
    3.1017   -0.0486   -2.1838 H   0  0  0  0  0  0  0  0  0  0  0  0
    0.9482   -0.7119   -0.4130 Pd  0  0  0  0  0  1  0  0  0  0  0  0
    0.3886    0.0122    1.7236 P   0  0  0  0  0  0  0  0  0  0  0  0
   -1.2620   -0.3067   -1.0360 P   0  0  0  0  0  0  0  0  0  0  0  0
    1.7344   -2.7879   -1.5732 H   0  0  0  0  0  0  0  0  0  0  0  0
    3.1891   -1.9680    0.2599 H   0  0  0  0  0  0  0  0  0  0  0  0
    0.4013   -2.0094   -6.1705 C   0  0  0  0  0  0  0  0  0  0  0  0
   -0.1089   -2.8658   -5.1811 C   0  0  0  0  0  0  0  0  0  0  0  0
    0.4047   -2.8163   -3.8806 C   0  0  0  0  0  0  0  0  0  0  0  0
    1.4256   -1.8998   -3.5362 C   0  0  0  0  0  0  0  0  0  0  0  0
    1.9469   -1.0626   -4.5486 C   0  0  0  0  0  0  0  0  0  0  0  0
    1.4376   -1.1172   -5.8508 C   0  0  0  0  0  0  0  0  0  0  0  0
    0.0056   -2.0493   -7.1904 H   0  0  0  0  0  0  0  0  0  0  0  0
   -0.9016   -3.5796   -5.4280 H   0  0  0  0  0  0  0  0  0  0  0  0
    0.0083   -3.4889   -3.1110 H   0  0  0  0  0  0  0  0  0  0  0  0
    2.7626   -0.3682   -4.3233 H   0  0  0  0  0  0  0  0  0  0  0  0
    1.8558   -0.4644   -6.6238 H   0  0  0  0  0  0  0  0  0  0  0  0
    5.3287    2.0860    1.9032 C   0  0  0  0  0  0  0  0  0  0  0  0
    4.5542    2.4272    0.7816 C   0  0  0  0  0  0  0  0  0  0  0  0
    3.8469    1.4407    0.0868 C   0  0  0  0  0  0  0  0  0  0  0  0
    3.9050    0.0862    0.4921 C   0  0  0  0  0  0  0  0  0  0  0  0
    4.6944   -0.2433    1.6166 C   0  0  0  0  0  0  0  0  0  0  0  0
    5.3972    0.7467    2.3164 C   0  0  0  0  0  0  0  0  0  0  0  0
    5.8776    2.8599    2.4492 H   0  0  0  0  0  0  0  0  0  0  0  0
    4.4954    3.4705    0.4540 H   0  0  0  0  0  0  0  0  0  0  0  0
    3.2179    1.7275   -0.7642 H   0  0  0  0  0  0  0  0  0  0  0  0
    4.7636   -1.2888    1.9366 H   0  0  0  0  0  0  0  0  0  0  0  0
    6.0071    0.4701    3.1827 H   0  0  0  0  0  0  0  0  0  0  0  0
   -3.4682    0.4219    0.4560 N   0  0  0  0  0  0  0  0  0  0  0  0
   -1.9248    1.1400    2.7210 N   0  0  0  0  0  0  0  0  0  0  0  0
   -1.3937    1.2310   -2.1553 C   0  0  1  0  0  0  0  0  0  0  0  0
    0.3554   -1.3874    3.0152 C   0  0  1  0  0  0  0  0  0  0  0  0
   -2.1564    0.2385    0.4941 C   0  0  0  0  0  0  0  0  0  0  0  0
   -1.3829    0.5546    1.6630 C   0  0  0  0  0  0  0  0  0  0  0  0
   -0.8472    2.4301   -1.3500 C   0  0  0  0  0  0  0  0  0  0  0  0
   -0.4967    0.9761   -3.3829 C   0  0  0  0  0  0  0  0  0  0  0  0
   -2.8501    1.4832   -2.5900 C   0  0  0  0  0  0  0  0  0  0  0  0
    1.7396   -2.0678    3.0052 C   0  0  0  0  0  0  0  0  0  0  0  0
    0.0446   -0.8347    4.4207 C   0  0  0  0  0  0  0  0  0  0  0  0
   -0.7287   -2.3920    2.5686 C   0  0  0  0  0  0  0  0  0  0  0  0
   -2.3672   -1.5877   -1.7542 C   0  0  0  0  0  0  0  0  0  0  0  0
    1.2704    1.4355    2.4765 C   0  0  0  0  0  0  0  0  0  0  0  0
   -4.0624    0.9754    1.5534 C   0  0  0  0  0  0  0  0  0  0  0  0
   -3.2676    1.3842    2.6907 C   0  0  0  0  0  0  0  0  0  0  0  0
   -5.4695    1.1835    1.5705 C   0  0  0  0  0  0  0  0  0  0  0  0
   -3.8995    2.0169    3.7970 C   0  0  0  0  0  0  0  0  0  0  0  0
   -6.0567    1.7928    2.6675 C   0  0  0  0  0  0  0  0  0  0  0  0
   -5.2706    2.2145    3.7791 C   0  0  0  0  0  0  0  0  0  0  0  0
   -1.4949    2.6848   -0.4931 H   0  0  0  0  0  0  0  0  0  0  0  0
    0.1737    2.2306   -0.9727 H   0  0  0  0  0  0  0  0  0  0  0  0
   -0.7982    3.3164   -2.0079 H   0  0  0  0  0  0  0  0  0  0  0  0
   -0.7895    0.0701   -3.9409 H   0  0  0  0  0  0  0  0  0  0  0  0
    0.5606    0.8682   -3.0878 H   0  0  0  0  0  0  0  0  0  0  0  0
   -0.5741    1.8348   -4.0743 H   0  0  0  0  0  0  0  0  0  0  0  0
   -3.2227    0.6813   -3.2497 H   0  0  0  0  0  0  0  0  0  0  0  0
   -3.5306    1.5702   -1.7270 H   0  0  0  0  0  0  0  0  0  0  0  0
   -2.8908    2.4286   -3.1617 H   0  0  0  0  0  0  0  0  0  0  0  0
    1.9404   -2.5563    2.0370 H   0  0  0  0  0  0  0  0  0  0  0  0
    2.5536   -1.3525    3.2134 H   0  0  0  0  0  0  0  0  0  0  0  0
    1.7651   -2.8446    3.7906 H   0  0  0  0  0  0  0  0  0  0  0  0
   -0.8918   -0.2535    4.4381 H   0  0  0  0  0  0  0  0  0  0  0  0
    0.8610   -0.1940    4.7949 H   0  0  0  0  0  0  0  0  0  0  0  0
   -0.0586   -1.6846    5.1201 H   0  0  0  0  0  0  0  0  0  0  0  0
   -1.7429   -1.9612    2.6345 H   0  0  0  0  0  0  0  0  0  0  0  0
   -0.5588   -2.7350    1.5307 H   0  0  0  0  0  0  0  0  0  0  0  0
   -0.6977   -3.2782    3.2276 H   0  0  0  0  0  0  0  0  0  0  0  0
   -2.0782   -1.7711   -2.8014 H   0  0  0  0  0  0  0  0  0  0  0  0
   -3.4135   -1.2466   -1.6937 H   0  0  0  0  0  0  0  0  0  0  0  0
   -2.2472   -2.5199   -1.1788 H   0  0  0  0  0  0  0  0  0  0  0  0
    2.2896    1.1290    2.7632 H   0  0  0  0  0  0  0  0  0  0  0  0
    0.7061    1.7966    3.3514 H   0  0  0  0  0  0  0  0  0  0  0  0
    1.3467    2.2353    1.7232 H   0  0  0  0  0  0  0  0  0  0  0  0
   -6.0531    0.8607    0.7035 H   0  0  0  0  0  0  0  0  0  0  0  0
   -3.2789    2.3247    4.6435 H   0  0  0  0  0  0  0  0  0  0  0  0
   -7.1386    1.9588    2.6846 H   0  0  0  0  0  0  0  0  0  0  0  0
   -5.7631    2.6972    4.6293 H   0  0  0  0  0  0  0  0  0  0  0  0
  1  2  1  0
  1  8  1  0
  2  5  1  0
  2  3  1  0
  3  9  1  0
  3 24  1  0
  2  4  1  6
  6 45  1  0
 35  6  1  6
 34  7  1  1
  7 36  1  0
 10 15  2  0
 10 11  1  0
 11 12  2  0
 12 13  1  0
 12 18  1  0
 13  1  1  0
 14 19  1  0
 14 13  2  0
 15 14  1  0
 16 10  1  0
 17 11  1  0
 20 15  1  0
 21 26  1  0
 21 27  1  0
 22 21  2  0
 23 24  2  0
 23 22  1  0
 24 25  1  0
 25 30  1  0
 25 26  2  0
 26 31  1  0
 28 22  1  0
 29 23  1  0
 32 36  2  0
 32 46  1  0
 34 38  1  0
 35 42  1  0
 36 37  1  0
 37  6  1  0
 37 33  2  0
 38 53  1  0
 38 52  1  0
 39 56  1  0
 39 34  1  0
 40 34  1  0
 40 59  1  0
 41 35  1  0
 41 62  1  0
 41 63  1  0
 42 64  1  0
 42 65  1  0
 42 66  1  0
 43 67  1  0
 43 35  1  0
 43 69  1  0
 44 71  1  0
 44 72  1  0
 44  7  1  0
 45 73  1  0
 45 74  1  0
 46 48  2  0
 46 47  1  0
 47 33  1  0
 47 49  2  0
 48 50  1  0
 49 77  1  0
 50 78  1  0
 50 51  2  0
 51 49  1  0
 51 79  1  0
 54 38  1  0
 55 39  1  0
 57 39  1  0
 58 40  1  0
 60 40  1  0
 61 41  1  0
 68 43  1  0
 70 44  1  0
 75 45  1  0
 76 48  1  0
M  END
>  <Energy>  (1) 
-2203.122236

$$$$
186_cs_CONF_0002.xyz
     RDKit          3D

 79 81  0  0  0  0  0  0  0  0999 V2000
    1.9210   -2.0108   -1.9721 C   0  0  0  0  0  3  0  0  0  0  0  0
    2.8285   -1.0689   -1.4359 C   0  0  1  0  0  0  0  0  0  0  0  0
    3.1176   -1.0576   -0.0348 C   0  0  0  0  0  3  0  0  0  0  0  0
    3.1747   -0.2366   -2.0623 H   0  0  0  0  0  0  0  0  0  0  0  0
    0.9438   -0.7553   -0.3406 Pd  0  0  0  0  0  1  0  0  0  0  0  0
    0.3290    0.0921    1.7350 P   0  0  0  0  0  0  0  0  0  0  0  0
   -1.2330   -0.3319   -1.0616 P   0  0  0  0  0  0  0  0  0  0  0  0
    1.7165   -2.9073   -1.3641 H   0  0  0  0  0  0  0  0  0  0  0  0
    3.1250   -2.0307    0.4760 H   0  0  0  0  0  0  0  0  0  0  0  0
    0.5697   -2.3380   -6.0414 C   0  0  0  0  0  0  0  0  0  0  0  0
    0.0023   -3.1292   -5.0291 C   0  0  0  0  0  0  0  0  0  0  0  0
    0.4697   -3.0239   -3.7144 C   0  0  0  0  0  0  0  0  0  0  0  0
    1.5004   -2.1150   -3.3796 C   0  0  0  0  0  0  0  0  0  0  0  0
    2.0792   -1.3444   -4.4135 C   0  0  0  0  0  0  0  0  0  0  0  0
    1.6162   -1.4551   -5.7294 C   0  0  0  0  0  0  0  0  0  0  0  0
    0.2103   -2.4219   -7.0720 H   0  0  0  0  0  0  0  0  0  0  0  0
   -0.7990   -3.8360   -5.2685 H   0  0  0  0  0  0  0  0  0  0  0  0
    0.0290   -3.6461   -2.9269 H   0  0  0  0  0  0  0  0  0  0  0  0
    2.9037   -0.6587   -4.1938 H   0  0  0  0  0  0  0  0  0  0  0  0
    2.0788   -0.8539   -6.5187 H   0  0  0  0  0  0  0  0  0  0  0  0
    5.3066    2.0473    1.9987 C   0  0  0  0  0  0  0  0  0  0  0  0
    4.5878    2.3496    0.8298 C   0  0  0  0  0  0  0  0  0  0  0  0
    3.8819    1.3468    0.1572 C   0  0  0  0  0  0  0  0  0  0  0  0
    3.8857    0.0143    0.6332 C   0  0  0  0  0  0  0  0  0  0  0  0
    4.6194   -0.2765    1.8049 C   0  0  0  0  0  0  0  0  0  0  0  0
    5.3210    0.7300    2.4821 C   0  0  0  0  0  0  0  0  0  0  0  0
    5.8544    2.8341    2.5271 H   0  0  0  0  0  0  0  0  0  0  0  0
    4.5715    3.3755    0.4472 H   0  0  0  0  0  0  0  0  0  0  0  0
    3.2962    1.6050   -0.7329 H   0  0  0  0  0  0  0  0  0  0  0  0
    4.6459   -1.3053    2.1808 H   0  0  0  0  0  0  0  0  0  0  0  0
    5.8873    0.4832    3.3861 H   0  0  0  0  0  0  0  0  0  0  0  0
   -3.4679    0.5356    0.3082 N   0  0  0  0  0  0  0  0  0  0  0  0
   -1.9828    1.3384    2.5838 N   0  0  0  0  0  0  0  0  0  0  0  0
   -1.2886    1.1441   -2.2671 C   0  0  1  0  0  0  0  0  0  0  0  0
    0.2094   -1.2412    3.0898 C   0  0  1  0  0  0  0  0  0  0  0  0
   -2.1641    0.3187    0.4038 C   0  0  0  0  0  0  0  0  0  0  0  0
   -1.4225    0.6785    1.5807 C   0  0  0  0  0  0  0  0  0  0  0  0
   -2.7219    1.4017   -2.7702 C   0  0  0  0  0  0  0  0  0  0  0  0
   -0.7450    2.3743   -1.5082 C   0  0  0  0  0  0  0  0  0  0  0  0
   -0.3529    0.8031   -3.4439 C   0  0  0  0  0  0  0  0  0  0  0  0
    1.5808   -1.9411    3.1805 C   0  0  0  0  0  0  0  0  0  0  0  0
   -0.1599   -0.6173    4.4506 C   0  0  0  0  0  0  0  0  0  0  0  0
   -0.8684   -2.2506    2.6387 C   0  0  0  0  0  0  0  0  0  0  0  0
   -2.3446   -1.6256   -1.7464 C   0  0  0  0  0  0  0  0  0  0  0  0
    1.2218    1.5274    2.4511 C   0  0  0  0  0  0  0  0  0  0  0  0
   -4.0828    1.1672    1.3508 C   0  0  0  0  0  0  0  0  0  0  0  0
   -3.3156    1.6186    2.4909 C   0  0  0  0  0  0  0  0  0  0  0  0
   -5.4828    1.4152    1.3055 C   0  0  0  0  0  0  0  0  0  0  0  0
   -3.9656    2.3323    3.5358 C   0  0  0  0  0  0  0  0  0  0  0  0
   -6.0886    2.1038    2.3440 C   0  0  0  0  0  0  0  0  0  0  0  0
   -5.3287    2.5674    3.4572 C   0  0  0  0  0  0  0  0  0  0  0  0
   -3.0877    0.5724   -3.3991 H   0  0  0  0  0  0  0  0  0  0  0  0
   -3.4316    1.5505   -1.9398 H   0  0  0  0  0  0  0  0  0  0  0  0
   -2.7199    2.3147   -3.3938 H   0  0  0  0  0  0  0  0  0  0  0  0
    0.2559    2.1745   -1.0811 H   0  0  0  0  0  0  0  0  0  0  0  0
   -1.4185    2.6901   -0.6925 H   0  0  0  0  0  0  0  0  0  0  0  0
   -0.6509    3.2212   -2.2113 H   0  0  0  0  0  0  0  0  0  0  0  0
    0.6897    0.6885   -3.1029 H   0  0  0  0  0  0  0  0  0  0  0  0
   -0.6462   -0.1255   -3.9630 H   0  0  0  0  0  0  0  0  0  0  0  0
   -0.3844    1.6244   -4.1827 H   0  0  0  0  0  0  0  0  0  0  0  0
    1.8256   -2.4686    2.2434 H   0  0  0  0  0  0  0  0  0  0  0  0
    2.3939   -1.2302    3.4061 H   0  0  0  0  0  0  0  0  0  0  0  0
    1.5513   -2.6880    3.9942 H   0  0  0  0  0  0  0  0  0  0  0  0
   -1.0910   -0.0302    4.3973 H   0  0  0  0  0  0  0  0  0  0  0  0
    0.6438    0.0365    4.8295 H   0  0  0  0  0  0  0  0  0  0  0  0
   -0.3014   -1.4308    5.1858 H   0  0  0  0  0  0  0  0  0  0  0  0
   -1.8755   -1.7989    2.6208 H   0  0  0  0  0  0  0  0  0  0  0  0
   -0.6467   -2.6558    1.6335 H   0  0  0  0  0  0  0  0  0  0  0  0
   -0.8939   -3.0976    3.3476 H   0  0  0  0  0  0  0  0  0  0  0  0
   -2.0210   -1.8782   -2.7689 H   0  0  0  0  0  0  0  0  0  0  0  0
   -3.3829   -1.2562   -1.7474 H   0  0  0  0  0  0  0  0  0  0  0  0
   -2.2714   -2.5244   -1.1129 H   0  0  0  0  0  0  0  0  0  0  0  0
    2.2229    1.2108    2.7863 H   0  0  0  0  0  0  0  0  0  0  0  0
    0.6381    1.9428    3.2883 H   0  0  0  0  0  0  0  0  0  0  0  0
    1.3429    2.2889    1.6647 H   0  0  0  0  0  0  0  0  0  0  0  0
   -6.0459    1.0592    0.4380 H   0  0  0  0  0  0  0  0  0  0  0  0
   -3.3653    2.6710    4.3851 H   0  0  0  0  0  0  0  0  0  0  0  0
   -7.1649    2.3010    2.3126 H   0  0  0  0  0  0  0  0  0  0  0  0
   -5.8352    3.1126    4.2600 H   0  0  0  0  0  0  0  0  0  0  0  0
  1  2  1  0
  1  8  1  0
  2  5  1  0
  2  3  1  0
  3  9  1  0
  3 24  1  0
  2  4  1  6
  6 45  1  0
 35  6  1  6
 34  7  1  1
  7 36  1  0
 10 15  2  0
 10 11  1  0
 11 12  2  0
 12 13  1  0
 12 18  1  0
 13  1  1  0
 14 19  1  0
 14 13  2  0
 15 14  1  0
 16 10  1  0
 17 11  1  0
 20 15  1  0
 21 26  1  0
 21 27  1  0
 22 21  2  0
 23 24  2  0
 23 22  1  0
 24 25  1  0
 25 30  1  0
 25 26  2  0
 26 31  1  0
 28 22  1  0
 29 23  1  0
 32 36  2  0
 32 46  1  0
 34 39  1  0
 35 41  1  0
 35 42  1  0
 36 37  1  0
 37  6  1  0
 37 33  2  0
 38 34  1  0
 38 53  1  0
 39 55  1  0
 39 56  1  0
 40 58  1  0
 40 34  1  0
 41 62  1  0
 41 63  1  0
 42 65  1  0
 42 66  1  0
 43 35  1  0
 43 69  1  0
 44 72  1  0
 44  7  1  0
 45 73  1  0
 45 74  1  0
 46 47  1  0
 47 33  1  0
 47 49  2  0
 48 46  2  0
 48 50  1  0
 49 77  1  0
 50 51  2  0
 51 49  1  0
 51 79  1  0
 52 38  1  0
 54 38  1  0
 57 39  1  0
 59 40  1  0
 60 40  1  0
 61 41  1  0
 64 42  1  0
 67 43  1  0
 68 43  1  0
 70 44  1  0
 71 44  1  0
 75 45  1  0
 76 48  1  0
 78 50  1  0
M  END
>  <Energy>  (2) 
-2203.1223219999997

$$$$
