197_cs_CONF_0001.xyz
     RDKit          3D

 87 89  0  0  1  0  0  0  0  0999 V2000
    2.4015   -1.1571   -1.4527 C   0  0  0  0  0  3  0  0  0  0  0  0
    1.6168   -0.8366   -2.5900 C   0  0  1  0  0  0  0  0  0  0  0  0
    1.2666    0.5171   -2.8636 C   0  0  0  0  0  3  0  0  0  0  0  0
    1.1379   -1.6417   -3.1605 H   0  0  0  0  0  0  0  0  0  0  0  0
    0.5506   -0.0595   -0.8302 Pd  0  0  0  0  0  1  0  0  0  0  0  0
   -1.2165    1.3884   -0.1992 P   0  0  0  0  0  0  0  0  0  0  0  0
   -0.0483   -0.7518    1.3315 P   0  0  0  0  0  0  0  0  0  0  0  0
    3.0614   -0.3660   -1.0635 H   0  0  0  0  0  0  0  0  0  0  0  0
    1.9695    1.2900   -2.5162 H   0  0  0  0  0  0  0  0  0  0  0  0
    3.4659   -5.0835   -0.0509 C   0  0  0  0  0  0  0  0  0  0  0  0
    4.1411   -3.9444    0.4137 C   0  0  0  0  0  0  0  0  0  0  0  0
    3.7811   -2.6755   -0.0544 C   0  0  0  0  0  0  0  0  0  0  0  0
    2.7412   -2.5171   -0.9987 C   0  0  0  0  0  0  0  0  0  0  0  0
    2.0711   -3.6743   -1.4599 C   0  0  0  0  0  0  0  0  0  0  0  0
    2.4310   -4.9419   -0.9907 C   0  0  0  0  0  0  0  0  0  0  0  0
    3.7451   -6.0771    0.3137 H   0  0  0  0  0  0  0  0  0  0  0  0
    4.9536   -4.0476    1.1407 H   0  0  0  0  0  0  0  0  0  0  0  0
    4.3062   -1.7866    0.3116 H   0  0  0  0  0  0  0  0  0  0  0  0
    1.2569   -3.5860   -2.1868 H   0  0  0  0  0  0  0  0  0  0  0  0
    1.9017   -5.8266   -1.3592 H   0  0  0  0  0  0  0  0  0  0  0  0
   -1.3813    1.8527   -5.9872 C   0  0  0  0  0  0  0  0  0  0  0  0
   -0.4378    2.7256   -5.4245 C   0  0  0  0  0  0  0  0  0  0  0  0
    0.4216    2.2756   -4.4146 C   0  0  0  0  0  0  0  0  0  0  0  0
    0.3548    0.9449   -3.9421 C   0  0  0  0  0  0  0  0  0  0  0  0
   -0.5979    0.0754   -4.5239 C   0  0  0  0  0  0  0  0  0  0  0  0
   -1.4537    0.5245   -5.5348 C   0  0  0  0  0  0  0  0  0  0  0  0
   -2.0541    2.2026   -6.7767 H   0  0  0  0  0  0  0  0  0  0  0  0
   -0.3669    3.7596   -5.7773 H   0  0  0  0  0  0  0  0  0  0  0  0
    1.1621    2.9609   -3.9875 H   0  0  0  0  0  0  0  0  0  0  0  0
   -0.6795   -0.9601   -4.1764 H   0  0  0  0  0  0  0  0  0  0  0  0
   -2.1847   -0.1638   -5.9717 H   0  0  0  0  0  0  0  0  0  0  0  0
   -1.6820    1.0005    2.6500 O   0  0  0  0  0  0  0  0  0  0  0  0
    2.6635   -0.8308    2.9261 O   0  0  0  0  0  0  0  0  0  0  0  0
   -1.5729    0.3586    1.3792 C   0  0  1  0  0  0  0  0  0  0  0  0
   -0.6357    3.1447    0.2531 C   0  0  1  0  0  0  0  0  0  0  0  0
   -2.8923    1.3306   -1.1177 C   0  0  2  0  0  0  0  0  0  0  0  0
   -0.5779   -2.5203    1.7748 C   0  0  2  0  0  0  0  0  0  0  0  0
    0.4901    0.0505    2.8603 C   0  0  0  0  0  0  0  0  0  0  0  0
   -1.7252    3.9683    0.9671 C   0  0  0  0  0  0  0  0  0  0  0  0
    0.6108    3.0080    1.1585 C   0  0  0  0  0  0  0  0  0  0  0  0
   -0.1803    3.8304   -1.0568 C   0  0  0  0  0  0  0  0  0  0  0  0
   -3.0297   -0.1319   -1.6046 C   0  0  0  0  0  0  0  0  0  0  0  0
   -2.8673    2.2620   -2.3476 C   0  0  0  0  0  0  0  0  0  0  0  0
   -4.0809    1.6902   -0.2009 C   0  0  0  0  0  0  0  0  0  0  0  0
   -0.5318    0.8645    3.3916 C   0  0  0  0  0  0  0  0  0  0  0  0
    0.6962   -3.3209    2.1159 C   0  0  0  0  0  0  0  0  0  0  0  0
   -1.2605   -3.1000    0.5198 C   0  0  0  0  0  0  0  0  0  0  0  0
   -1.5394   -2.4933    2.9771 C   0  0  0  0  0  0  0  0  0  0  0  0
    1.7246   -0.0601    3.5357 C   0  0  0  0  0  0  0  0  0  0  0  0
   -0.3811    1.5355    4.6106 C   0  0  0  0  0  0  0  0  0  0  0  0
    1.8977    0.6173    4.7587 C   0  0  0  0  0  0  0  0  0  0  0  0
    0.8443    1.3916    5.2765 C   0  0  0  0  0  0  0  0  0  0  0  0
    3.9118   -1.0595    3.5897 C   0  0  0  0  0  0  0  0  0  0  0  0
   -2.5066   -0.1989    1.1948 H   0  0  0  0  0  0  0  0  0  0  0  0
   -3.7595    2.0523   -2.9647 H   0  0  0  0  0  0  0  0  0  0  0  0
   -4.0503    2.7382    0.1321 H   0  0  0  0  0  0  0  0  0  0  0  0
   -1.9789    2.0956   -2.9782 H   0  0  0  0  0  0  0  0  0  0  0  0
   -2.9102    3.3245   -2.0585 H   0  0  0  0  0  0  0  0  0  0  0  0
   -1.2842    4.9232    1.3076 H   0  0  0  0  0  0  0  0  0  0  0  0
   -3.0871   -0.8516   -0.7698 H   0  0  0  0  0  0  0  0  0  0  0  0
   -2.1857   -0.4195   -2.2536 H   0  0  0  0  0  0  0  0  0  0  0  0
   -3.9645   -0.2299   -2.1856 H   0  0  0  0  0  0  0  0  0  0  0  0
   -5.0177    1.5467   -0.7701 H   0  0  0  0  0  0  0  0  0  0  0  0
    0.2593    4.8111   -0.7993 H   0  0  0  0  0  0  0  0  0  0  0  0
   -1.0019    4.0076   -1.7647 H   0  0  0  0  0  0  0  0  0  0  0  0
    0.5940    3.2334   -1.5668 H   0  0  0  0  0  0  0  0  0  0  0  0
    1.0940    3.9989    1.2329 H   0  0  0  0  0  0  0  0  0  0  0  0
    0.3616    2.6846    2.1781 H   0  0  0  0  0  0  0  0  0  0  0  0
    1.3504    2.3022    0.7357 H   0  0  0  0  0  0  0  0  0  0  0  0
   -2.1198    3.4377    1.8489 H   0  0  0  0  0  0  0  0  0  0  0  0
   -2.5608    4.2150    0.2920 H   0  0  0  0  0  0  0  0  0  0  0  0
   -4.1405    1.0468    0.6937 H   0  0  0  0  0  0  0  0  0  0  0  0
   -0.5875   -3.0647   -0.3547 H   0  0  0  0  0  0  0  0  0  0  0  0
   -1.8275   -3.5302    3.2300 H   0  0  0  0  0  0  0  0  0  0  0  0
   -2.4673   -1.9349    2.7618 H   0  0  0  0  0  0  0  0  0  0  0  0
   -1.0626   -2.0474    3.8666 H   0  0  0  0  0  0  0  0  0  0  0  0
    0.4137   -4.3717    2.3096 H   0  0  0  0  0  0  0  0  0  0  0  0
    1.4217   -3.3093    1.2876 H   0  0  0  0  0  0  0  0  0  0  0  0
   -1.5298   -4.1554    0.7045 H   0  0  0  0  0  0  0  0  0  0  0  0
   -2.1896   -2.5591    0.2681 H   0  0  0  0  0  0  0  0  0  0  0  0
    1.1921   -2.9253    3.0167 H   0  0  0  0  0  0  0  0  0  0  0  0
   -1.1891    2.1549    5.0062 H   0  0  0  0  0  0  0  0  0  0  0  0
    2.8386    0.5526    5.3090 H   0  0  0  0  0  0  0  0  0  0  0  0
    0.9941    1.9107    6.2287 H   0  0  0  0  0  0  0  0  0  0  0  0
    4.4760   -0.1169    3.7121 H   0  0  0  0  0  0  0  0  0  0  0  0
    4.4713   -1.7450    2.9381 H   0  0  0  0  0  0  0  0  0  0  0  0
    3.7549   -1.5326    4.5760 H   0  0  0  0  0  0  0  0  0  0  0  0
  1  8  1  0
  1 13  1  0
  2  1  1  0
  2  5  1  0
  3  2  1  0
  3  9  1  0
  2  4  1  6
 35  6  1  6
  6 34  1  0
  7 34  1  0
  7 37  1  0
  7 38  1  0
 10 16  1  0
 10 11  1  0
 11 17  1  0
 12 18  1  0
 12 11  2  0
 13 12  1  0
 14 13  2  0
 14 15  1  0
 15 10  2  0
 19 14  1  0
 20 15  1  0
 21 26  2  0
 21 22  1  0
 22 23  2  0
 23 29  1  0
 23 24  1  0
 24  3  1  0
 25 30  1  0
 25 24  2  0
 26 25  1  0
 27 21  1  0
 28 22  1  0
 31 26  1  0
 32 45  1  0
 33 49  1  0
 33 53  1  0
 34 54  1  6
 34 32  1  0
 35 39  1  0
 35 40  1  0
 36 44  1  0
 36  6  1  1
 37 46  1  1
 37 48  1  0
 38 45  2  0
 38 49  1  0
 39 59  1  0
 39 70  1  0
 40 67  1  0
 40 68  1  0
 41 64  1  0
 41 35  1  0
 42 36  1  0
 42 60  1  0
 43 58  1  0
 43 36  1  0
 44 56  1  0
 44 72  1  0
 45 50  1  0
 46 77  1  0
 46 81  1  0
 47 79  1  0
 47 37  1  0
 48 74  1  0
 48 76  1  0
 49 51  2  0
 50 82  1  0
 50 52  2  0
 51 52  1  0
 51 83  1  0
 52 84  1  0
 53 85  1  0
 53 87  1  0
 55 43  1  0
 57 43  1  0
 61 42  1  0
 62 42  1  0
 63 44  1  0
 65 41  1  0
 66 41  1  0
 69 40  1  0
 71 39  1  0
 73 47  1  0
 75 48  1  0
 78 46  1  0
 80 47  1  0
 86 53  1  0
M  END
>  <Energy>  (1) 
-2323.927237

$$$$
197_cs_CONF_0002.xyz
     RDKit          3D

 87 89  0  0  1  0  0  0  0  0999 V2000
    2.4410   -1.2859   -1.4413 C   0  0  0  0  0  3  0  0  0  0  0  0
    1.6275   -0.8953   -2.5361 C   0  0  1  0  0  0  0  0  0  0  0  0
    1.3473    0.4756   -2.7875 C   0  0  0  0  0  3  0  0  0  0  0  0
    1.0862   -1.6650   -3.0996 H   0  0  0  0  0  0  0  0  0  0  0  0
    0.6671   -0.0849   -0.7271 Pd  0  0  0  0  0  1  0  0  0  0  0  0
   -1.1279    1.3481   -0.1413 P   0  0  0  0  0  0  0  0  0  0  0  0
    0.0940   -0.6924    1.4870 P   0  0  0  0  0  0  0  0  0  0  0  0
    3.1869   -0.5572   -1.0869 H   0  0  0  0  0  0  0  0  0  0  0  0
    2.0869    1.2077   -2.4272 H   0  0  0  0  0  0  0  0  0  0  0  0
    3.2499   -5.3445   -0.2518 C   0  0  0  0  0  0  0  0  0  0  0  0
    4.1272   -4.3073    0.0979 C   0  0  0  0  0  0  0  0  0  0  0  0
    3.8554   -2.9930   -0.3022 C   0  0  0  0  0  0  0  0  0  0  0  0
    2.6988   -2.6853   -1.0547 C   0  0  0  0  0  0  0  0  0  0  0  0
    1.8300   -3.7449   -1.4085 C   0  0  0  0  0  0  0  0  0  0  0  0
    2.1035   -5.0575   -1.0124 C   0  0  0  0  0  0  0  0  0  0  0  0
    3.4593   -6.3724    0.0608 H   0  0  0  0  0  0  0  0  0  0  0  0
    5.0298   -4.5233    0.6785 H   0  0  0  0  0  0  0  0  0  0  0  0
    4.5553   -2.1915   -0.0414 H   0  0  0  0  0  0  0  0  0  0  0  0
    0.9244   -3.5400   -1.9893 H   0  0  0  0  0  0  0  0  0  0  0  0
    1.4173   -5.8629   -1.2938 H   0  0  0  0  0  0  0  0  0  0  0  0
   -1.2102    1.9994   -5.8990 C   0  0  0  0  0  0  0  0  0  0  0  0
   -0.2690    2.8300   -5.2717 C   0  0  0  0  0  0  0  0  0  0  0  0
    0.5583    2.3185   -4.2647 C   0  0  0  0  0  0  0  0  0  0  0  0
    0.4598    0.9680   -3.8577 C   0  0  0  0  0  0  0  0  0  0  0  0
   -0.4875    0.1412   -4.5070 C   0  0  0  0  0  0  0  0  0  0  0  0
   -1.3110    0.6516   -5.5155 C   0  0  0  0  0  0  0  0  0  0  0  0
   -1.8575    2.3969   -6.6871 H   0  0  0  0  0  0  0  0  0  0  0  0
   -0.1743    3.8783   -5.5727 H   0  0  0  0  0  0  0  0  0  0  0  0
    1.2989    2.9703   -3.7888 H   0  0  0  0  0  0  0  0  0  0  0  0
   -0.5874   -0.9110   -4.2209 H   0  0  0  0  0  0  0  0  0  0  0  0
   -2.0371   -0.0046   -6.0062 H   0  0  0  0  0  0  0  0  0  0  0  0
   -1.7103    0.9597    2.6794 O   0  0  0  0  0  0  0  0  0  0  0  0
    2.8588   -0.4601    3.5318 O   0  0  0  0  0  0  0  0  0  0  0  0
   -1.4867    0.3196    1.4301 C   0  0  1  0  0  0  0  0  0  0  0  0
   -0.6240    3.1274    0.3090 C   0  0  1  0  0  0  0  0  0  0  0  0
   -2.7834    1.2285   -1.0925 C   0  0  2  0  0  0  0  0  0  0  0  0
   -0.3723   -2.4612    2.0074 C   0  0  2  0  0  0  0  0  0  0  0  0
    0.5317    0.1810    3.0274 C   0  0  0  0  0  0  0  0  0  0  0  0
   -0.1102    3.7955   -0.9881 C   0  0  0  0  0  0  0  0  0  0  0  0
   -1.7797    3.9305    0.9376 C   0  0  0  0  0  0  0  0  0  0  0  0
    0.5661    3.0548    1.2927 C   0  0  0  0  0  0  0  0  0  0  0  0
   -2.8462   -0.2310   -1.6032 C   0  0  0  0  0  0  0  0  0  0  0  0
   -2.7880    2.1826   -2.3047 C   0  0  0  0  0  0  0  0  0  0  0  0
   -4.0004    1.5169   -0.1866 C   0  0  0  0  0  0  0  0  0  0  0  0
   -0.6107    0.8823    3.5055 C   0  0  0  0  0  0  0  0  0  0  0  0
   -1.2599   -2.4238    3.2654 C   0  0  0  0  0  0  0  0  0  0  0  0
    0.9372   -3.2281    2.2893 C   0  0  0  0  0  0  0  0  0  0  0  0
   -1.1230   -3.0851    0.8143 C   0  0  0  0  0  0  0  0  0  0  0  0
    1.6808    0.1381    3.8557 C   0  0  0  0  0  0  0  0  0  0  0  0
   -0.6569    1.4858    4.7613 C   0  0  0  0  0  0  0  0  0  0  0  0
    1.6367    0.7305    5.1346 C   0  0  0  0  0  0  0  0  0  0  0  0
    0.4833    1.3843    5.5755 C   0  0  0  0  0  0  0  0  0  0  0  0
    3.2678   -0.5129    2.1661 C   0  0  0  0  0  0  0  0  0  0  0  0
   -2.3640   -0.3082    1.1987 H   0  0  0  0  0  0  0  0  0  0  0  0
   -3.6733    1.9556   -2.9257 H   0  0  0  0  0  0  0  0  0  0  0  0
   -4.0199    2.5568    0.1712 H   0  0  0  0  0  0  0  0  0  0  0  0
   -1.8955    2.0559   -2.9379 H   0  0  0  0  0  0  0  0  0  0  0  0
   -2.8646    3.2381   -1.9972 H   0  0  0  0  0  0  0  0  0  0  0  0
    0.2417    4.8129   -0.7388 H   0  0  0  0  0  0  0  0  0  0  0  0
   -2.8668   -0.9672   -0.7811 H   0  0  0  0  0  0  0  0  0  0  0  0
   -1.9877   -0.4639   -2.2546 H   0  0  0  0  0  0  0  0  0  0  0  0
   -3.7734   -0.3666   -2.1888 H   0  0  0  0  0  0  0  0  0  0  0  0
   -4.9204    1.3479   -0.7759 H   0  0  0  0  0  0  0  0  0  0  0  0
    1.0177    4.0608    1.3636 H   0  0  0  0  0  0  0  0  0  0  0  0
    1.3490    2.3586    0.9387 H   0  0  0  0  0  0  0  0  0  0  0  0
    0.2623    2.7553    2.3050 H   0  0  0  0  0  0  0  0  0  0  0  0
   -1.3899    4.9078    1.2768 H   0  0  0  0  0  0  0  0  0  0  0  0
   -2.5842    4.1321    0.2116 H   0  0  0  0  0  0  0  0  0  0  0  0
   -2.2046    3.4085    1.8106 H   0  0  0  0  0  0  0  0  0  0  0  0
   -0.8787    3.8877   -1.7685 H   0  0  0  0  0  0  0  0  0  0  0  0
    0.7417    3.2336   -1.4063 H   0  0  0  0  0  0  0  0  0  0  0  0
   -4.0486    0.8505    0.6914 H   0  0  0  0  0  0  0  0  0  0  0  0
    1.5125   -2.7639    3.1091 H   0  0  0  0  0  0  0  0  0  0  0  0
   -1.3112   -4.1542    1.0191 H   0  0  0  0  0  0  0  0  0  0  0  0
   -0.5327   -3.0139   -0.1153 H   0  0  0  0  0  0  0  0  0  0  0  0
   -2.1023   -2.6034    0.6467 H   0  0  0  0  0  0  0  0  0  0  0  0
   -1.5551   -3.4570    3.5251 H   0  0  0  0  0  0  0  0  0  0  0  0
   -0.7234   -1.9968    4.1290 H   0  0  0  0  0  0  0  0  0  0  0  0
    0.6886   -4.2599    2.5967 H   0  0  0  0  0  0  0  0  0  0  0  0
    1.5753   -3.2931    1.3924 H   0  0  0  0  0  0  0  0  0  0  0  0
   -2.1851   -1.8418    3.1087 H   0  0  0  0  0  0  0  0  0  0  0  0
   -1.5576    2.0148    5.0807 H   0  0  0  0  0  0  0  0  0  0  0  0
    2.5367    0.6767    5.7524 H   0  0  0  0  0  0  0  0  0  0  0  0
    0.4765    1.8475    6.5673 H   0  0  0  0  0  0  0  0  0  0  0  0
    2.7235   -1.2893    1.5988 H   0  0  0  0  0  0  0  0  0  0  0  0
    4.3368   -0.7707    2.1835 H   0  0  0  0  0  0  0  0  0  0  0  0
    3.1230    0.4666    1.6726 H   0  0  0  0  0  0  0  0  0  0  0  0
  1  8  1  0
  1 13  1  0
  2  1  1  0
  2  5  1  0
  3  2  1  0
  3  9  1  0
  2  4  1  6
 35  6  1  6
  6 34  1  0
  7 37  1  0
  7 38  1  0
 10 16  1  0
 10 11  1  0
 11 17  1  0
 12 18  1  0
 12 11  2  0
 13 12  1  0
 14 13  2  0
 14 15  1  0
 15 10  2  0
 19 14  1  0
 20 15  1  0
 21 26  2  0
 21 22  1  0
 22 23  2  0
 23 24  1  0
 23 29  1  0
 24  3  1  0
 25 30  1  0
 25 24  2  0
 26 25  1  0
 27 21  1  0
 28 22  1  0
 31 26  1  0
 32 45  1  0
 33 49  1  0
 34 54  1  6
 34  7  1  0
 34 32  1  0
 35 40  1  0
 35 41  1  0
 36 44  1  0
 36  6  1  1
 37 47  1  1
 37 46  1  0
 38 45  2  0
 38 49  1  0
 39 59  1  0
 39 35  1  0
 40 67  1  0
 40 69  1  0
 41 64  1  0
 41 66  1  0
 42 36  1  0
 42 60  1  0
 43 58  1  0
 43 36  1  0
 44 56  1  0
 44 72  1  0
 45 50  1  0
 46 77  1  0
 46 78  1  0
 47 79  1  0
 47 73  1  0
 48 74  1  0
 48 37  1  0
 49 51  2  0
 50 82  1  0
 50 52  2  0
 51 52  1  0
 51 83  1  0
 52 84  1  0
 53 86  1  0
 53 33  1  0
 55 43  1  0
 57 43  1  0
 61 42  1  0
 62 42  1  0
 63 44  1  0
 65 41  1  0
 68 40  1  0
 70 39  1  0
 71 39  1  0
 75 48  1  0
 76 48  1  0
 80 47  1  0
 81 46  1  0
 85 53  1  0
 87 53  1  0
M  END
>  <Energy>  (2) 
-2323.919923

$$$$
197_cs_CONF_0003.xyz
     RDKit          3D

 87 89  0  0  1  0  0  0  0  0999 V2000
    2.4349   -1.2925   -1.4473 C   0  0  0  0  0  3  0  0  0  0  0  0
    1.6182   -0.9023   -2.5398 C   0  0  1  0  0  0  0  0  0  0  0  0
    1.3395    0.4688   -2.7923 C   0  0  0  0  0  3  0  0  0  0  0  0
    1.0736   -1.6720   -3.1003 H   0  0  0  0  0  0  0  0  0  0  0  0
    0.6646   -0.0869   -0.7292 Pd  0  0  0  0  0  1  0  0  0  0  0  0
   -1.1257    1.3501   -0.1402 P   0  0  0  0  0  0  0  0  0  0  0  0
    0.0967   -0.6906    1.4874 P   0  0  0  0  0  0  0  0  0  0  0  0
    3.1826   -0.5642   -1.0964 H   0  0  0  0  0  0  0  0  0  0  0  0
    2.0817    1.2000   -2.4357 H   0  0  0  0  0  0  0  0  0  0  0  0
    3.2412   -5.3496   -0.2513 C   0  0  0  0  0  0  0  0  0  0  0  0
    4.1202   -4.3127    0.0948 C   0  0  0  0  0  0  0  0  0  0  0  0
    3.8493   -2.9989   -0.3076 C   0  0  0  0  0  0  0  0  0  0  0  0
    2.6917   -2.6914   -1.0588 C   0  0  0  0  0  0  0  0  0  0  0  0
    1.8212   -3.7508   -1.4091 C   0  0  0  0  0  0  0  0  0  0  0  0
    2.0939   -5.0629   -1.0107 C   0  0  0  0  0  0  0  0  0  0  0  0
    3.4499   -6.3771    0.0631 H   0  0  0  0  0  0  0  0  0  0  0  0
    5.0233   -4.5285    0.6747 H   0  0  0  0  0  0  0  0  0  0  0  0
    4.5505   -2.1977   -0.0496 H   0  0  0  0  0  0  0  0  0  0  0  0
    0.9148   -3.5461   -1.9887 H   0  0  0  0  0  0  0  0  0  0  0  0
    1.4064   -5.8682   -1.2895 H   0  0  0  0  0  0  0  0  0  0  0  0
   -1.2240    1.9926   -5.8988 C   0  0  0  0  0  0  0  0  0  0  0  0
   -0.2790    2.8221   -5.2761 C   0  0  0  0  0  0  0  0  0  0  0  0
    0.5499    2.3108   -4.2704 C   0  0  0  0  0  0  0  0  0  0  0  0
    0.4496    0.9612   -3.8606 C   0  0  0  0  0  0  0  0  0  0  0  0
   -0.5014    0.1353   -4.5055 C   0  0  0  0  0  0  0  0  0  0  0  0
   -1.3269    0.6458   -5.5124 C   0  0  0  0  0  0  0  0  0  0  0  0
   -1.8729    2.3901   -6.6858 H   0  0  0  0  0  0  0  0  0  0  0  0
   -0.1825    3.8696   -5.5796 H   0  0  0  0  0  0  0  0  0  0  0  0
    1.2933    2.9618   -3.7978 H   0  0  0  0  0  0  0  0  0  0  0  0
   -0.6026   -0.9162   -4.2173 H   0  0  0  0  0  0  0  0  0  0  0  0
   -2.0562   -0.0097   -5.9994 H   0  0  0  0  0  0  0  0  0  0  0  0
   -1.7013    0.9666    2.6825 O   0  0  0  0  0  0  0  0  0  0  0  0
    2.8669   -0.4620    3.5254 O   0  0  0  0  0  0  0  0  0  0  0  0
   -1.4822    0.3245    1.4335 C   0  0  1  0  0  0  0  0  0  0  0  0
   -0.6161    3.1288    0.3063 C   0  0  1  0  0  0  0  0  0  0  0  0
   -2.7843    1.2336   -1.0861 C   0  0  2  0  0  0  0  0  0  0  0  0
   -0.3717   -2.4580    2.0108 C   0  0  2  0  0  0  0  0  0  0  0  0
    0.5399    0.1837    3.0259 C   0  0  0  0  0  0  0  0  0  0  0  0
   -0.1034    3.7933   -0.9931 C   0  0  0  0  0  0  0  0  0  0  0  0
   -1.7682    3.9361    0.9362 C   0  0  0  0  0  0  0  0  0  0  0  0
    0.5760    3.0548    1.2876 C   0  0  0  0  0  0  0  0  0  0  0  0
   -2.8529   -0.2266   -1.5941 C   0  0  0  0  0  0  0  0  0  0  0  0
   -2.7900    2.1856   -2.2999 C   0  0  0  0  0  0  0  0  0  0  0  0
   -3.9978    1.5270   -0.1770 C   0  0  0  0  0  0  0  0  0  0  0  0
   -0.5999    0.8879    3.5060 C   0  0  0  0  0  0  0  0  0  0  0  0
    0.9370   -3.2269    2.2907 C   0  0  0  0  0  0  0  0  0  0  0  0
   -1.1260   -3.0818    0.8200 C   0  0  0  0  0  0  0  0  0  0  0  0
   -1.2565   -2.4175    3.2706 C   0  0  0  0  0  0  0  0  0  0  0  0
    1.6909    0.1391    3.8514 C   0  0  0  0  0  0  0  0  0  0  0  0
   -0.6417    1.4928    4.7613 C   0  0  0  0  0  0  0  0  0  0  0  0
    1.6512    0.7329    5.1299 C   0  0  0  0  0  0  0  0  0  0  0  0
    0.5003    1.3898    5.5728 C   0  0  0  0  0  0  0  0  0  0  0  0
    3.2725   -0.5168    2.1588 C   0  0  0  0  0  0  0  0  0  0  0  0
   -2.3612   -0.3021    1.2053 H   0  0  0  0  0  0  0  0  0  0  0  0
   -3.6778    1.9601   -2.9178 H   0  0  0  0  0  0  0  0  0  0  0  0
   -4.0135    2.5677    0.1787 H   0  0  0  0  0  0  0  0  0  0  0  0
   -1.8998    2.0552   -2.9357 H   0  0  0  0  0  0  0  0  0  0  0  0
   -2.8625    3.2418   -1.9940 H   0  0  0  0  0  0  0  0  0  0  0  0
    0.2505    4.8108   -0.7466 H   0  0  0  0  0  0  0  0  0  0  0  0
   -2.8732   -0.9613   -0.7708 H   0  0  0  0  0  0  0  0  0  0  0  0
   -1.9970   -0.4631   -2.2477 H   0  0  0  0  0  0  0  0  0  0  0  0
   -3.7822   -0.3605   -2.1767 H   0  0  0  0  0  0  0  0  0  0  0  0
   -4.9200    1.3591   -0.7630 H   0  0  0  0  0  0  0  0  0  0  0  0
    1.0310    4.0594    1.3551 H   0  0  0  0  0  0  0  0  0  0  0  0
    1.3559    2.3551    0.9336 H   0  0  0  0  0  0  0  0  0  0  0  0
    0.2733    2.7587    2.3012 H   0  0  0  0  0  0  0  0  0  0  0  0
   -1.3747    4.9126    1.2734 H   0  0  0  0  0  0  0  0  0  0  0  0
   -2.5734    4.1392    0.2115 H   0  0  0  0  0  0  0  0  0  0  0  0
   -2.1929    3.4166    1.8107 H   0  0  0  0  0  0  0  0  0  0  0  0
   -0.8730    3.8850   -1.7724 H   0  0  0  0  0  0  0  0  0  0  0  0
    0.7470    3.2292   -1.4114 H   0  0  0  0  0  0  0  0  0  0  0  0
   -4.0448    0.8625    0.7025 H   0  0  0  0  0  0  0  0  0  0  0  0
   -0.5371   -3.0135   -0.1107 H   0  0  0  0  0  0  0  0  0  0  0  0
   -1.5526   -3.4499    3.5325 H   0  0  0  0  0  0  0  0  0  0  0  0
   -2.1813   -1.8345    3.1151 H   0  0  0  0  0  0  0  0  0  0  0  0
   -0.7175   -1.9900    4.1325 H   0  0  0  0  0  0  0  0  0  0  0  0
    0.6872   -4.2581    2.5995 H   0  0  0  0  0  0  0  0  0  0  0  0
    1.5732   -3.2938    1.3925 H   0  0  0  0  0  0  0  0  0  0  0  0
   -1.3166   -4.1501    1.0268 H   0  0  0  0  0  0  0  0  0  0  0  0
   -2.1044   -2.5979    0.6532 H   0  0  0  0  0  0  0  0  0  0  0  0
    1.5149   -2.7630    3.1088 H   0  0  0  0  0  0  0  0  0  0  0  0
   -1.5405    2.0241    5.0823 H   0  0  0  0  0  0  0  0  0  0  0  0
    2.5525    0.6776    5.7457 H   0  0  0  0  0  0  0  0  0  0  0  0
    0.4968    1.8538    6.5642 H   0  0  0  0  0  0  0  0  0  0  0  0
    2.7245   -1.2919    1.5931 H   0  0  0  0  0  0  0  0  0  0  0  0
    4.3408   -0.7781    2.1739 H   0  0  0  0  0  0  0  0  0  0  0  0
    3.1298    0.4628    1.6651 H   0  0  0  0  0  0  0  0  0  0  0  0
  1  8  1  0
  1 13  1  0
  2  1  1  0
  2  5  1  0
  3  2  1  0
  3  9  1  0
  2  4  1  6
 35  6  1  6
  6 34  1  0
  7 37  1  0
  7 38  1  0
 10 16  1  0
 10 11  1  0
 11 17  1  0
 12 18  1  0
 12 11  2  0
 13 12  1  0
 14 13  2  0
 14 15  1  0
 15 10  2  0
 19 14  1  0
 20 15  1  0
 21 26  2  0
 21 22  1  0
 22 23  2  0
 23 24  1  0
 23 29  1  0
 24  3  1  0
 25 30  1  0
 25 24  2  0
 26 25  1  0
 27 21  1  0
 28 22  1  0
 31 26  1  0
 32 45  1  0
 33 49  1  0
 34 54  1  6
 34  7  1  0
 34 32  1  0
 35 40  1  0
 35 41  1  0
 36 44  1  0
 36  6  1  1
 37 46  1  1
 37 48  1  0
 38 45  2  0
 38 49  1  0
 39 59  1  0
 39 35  1  0
 40 67  1  0
 40 69  1  0
 41 64  1  0
 41 66  1  0
 42 36  1  0
 42 60  1  0
 43 58  1  0
 43 36  1  0
 44 56  1  0
 44 72  1  0
 45 50  1  0
 46 77  1  0
 46 81  1  0
 47 79  1  0
 47 37  1  0
 48 74  1  0
 48 76  1  0
 49 51  2  0
 50 82  1  0
 50 52  2  0
 51 52  1  0
 51 83  1  0
 52 84  1  0
 53 86  1  0
 53 33  1  0
 55 43  1  0
 57 43  1  0
 61 42  1  0
 62 42  1  0
 63 44  1  0
 65 41  1  0
 68 40  1  0
 70 39  1  0
 71 39  1  0
 73 47  1  0
 75 48  1  0
 78 46  1  0
 80 47  1  0
 85 53  1  0
 87 53  1  0
M  END
>  <Energy>  (3) 
-2323.919924

$$$$
197_cs_CONF_0004.xyz
     RDKit          3D

 87 89  0  0  1  0  0  0  0  0999 V2000
    2.4305   -1.1159   -1.4355 C   0  0  0  0  0  3  0  0  0  0  0  0
    1.6418   -0.8238   -2.5773 C   0  0  1  0  0  0  0  0  0  0  0  0
    1.2609    0.5190   -2.8640 C   0  0  0  0  0  3  0  0  0  0  0  0
    1.1831   -1.6448   -3.1420 H   0  0  0  0  0  0  0  0  0  0  0  0
    0.5526   -0.0545   -0.8280 Pd  0  0  0  0  0  1  0  0  0  0  0  0
   -1.2455    1.3617   -0.2143 P   0  0  0  0  0  0  0  0  0  0  0  0
   -0.0376   -0.7405    1.3377 P   0  0  0  0  0  0  0  0  0  0  0  0
    3.0703   -0.3061   -1.0513 H   0  0  0  0  0  0  0  0  0  0  0  0
    1.9456    1.3109   -2.5232 H   0  0  0  0  0  0  0  0  0  0  0  0
    3.5840   -5.0034    0.0037 C   0  0  0  0  0  0  0  0  0  0  0  0
    4.2297   -3.8444    0.4610 C   0  0  0  0  0  0  0  0  0  0  0  0
    3.8407   -2.5886   -0.0191 C   0  0  0  0  0  0  0  0  0  0  0  0
    2.8007   -2.4634   -0.9683 C   0  0  0  0  0  0  0  0  0  0  0  0
    2.1603   -3.6403   -1.4217 C   0  0  0  0  0  0  0  0  0  0  0  0
    2.5492   -4.8949   -0.9406 C   0  0  0  0  0  0  0  0  0  0  0  0
    3.8860   -5.9869    0.3776 H   0  0  0  0  0  0  0  0  0  0  0  0
    5.0421   -3.9218    1.1914 H   0  0  0  0  0  0  0  0  0  0  0  0
    4.3430   -1.6842    0.3409 H   0  0  0  0  0  0  0  0  0  0  0  0
    1.3469   -3.5779   -2.1522 H   0  0  0  0  0  0  0  0  0  0  0  0
    2.0427   -5.7953   -1.3032 H   0  0  0  0  0  0  0  0  0  0  0  0
   -1.4068    1.7609   -6.0094 C   0  0  0  0  0  0  0  0  0  0  0  0
   -0.4812    2.6593   -5.4575 C   0  0  0  0  0  0  0  0  0  0  0  0
    0.3845    2.2401   -4.4396 C   0  0  0  0  0  0  0  0  0  0  0  0
    0.3423    0.9150   -3.9489 C   0  0  0  0  0  0  0  0  0  0  0  0
   -0.5930    0.0197   -4.5196 C   0  0  0  0  0  0  0  0  0  0  0  0
   -1.4555    0.4382   -5.5380 C   0  0  0  0  0  0  0  0  0  0  0  0
   -2.0845    2.0867   -6.8050 H   0  0  0  0  0  0  0  0  0  0  0  0
   -0.4290    3.6893   -5.8251 H   0  0  0  0  0  0  0  0  0  0  0  0
    1.1109    2.9453   -4.0209 H   0  0  0  0  0  0  0  0  0  0  0  0
   -0.6558   -1.0120   -4.1571 H   0  0  0  0  0  0  0  0  0  0  0  0
   -2.1729   -0.2698   -5.9658 H   0  0  0  0  0  0  0  0  0  0  0  0
   -1.7121    0.9883    2.6366 O   0  0  0  0  0  0  0  0  0  0  0  0
    2.6686   -0.7520    2.9432 O   0  0  0  0  0  0  0  0  0  0  0  0
   -1.5854    0.3382    1.3715 C   0  0  1  0  0  0  0  0  0  0  0  0
   -0.6987    3.1325    0.2236 C   0  0  1  0  0  0  0  0  0  0  0  0
   -2.9179    1.2654   -1.1355 C   0  0  2  0  0  0  0  0  0  0  0  0
   -0.5311   -2.5169    1.7906 C   0  0  2  0  0  0  0  0  0  0  0  0
    0.4778    0.0838    2.8627 C   0  0  0  0  0  0  0  0  0  0  0  0
   -1.8070    3.9438    0.9226 C   0  0  0  0  0  0  0  0  0  0  0  0
    0.5443    3.0278    1.1381 C   0  0  0  0  0  0  0  0  0  0  0  0
   -0.2475    3.8123   -1.0907 C   0  0  0  0  0  0  0  0  0  0  0  0
   -2.9069    2.1859   -2.3737 C   0  0  0  0  0  0  0  0  0  0  0  0
   -4.1146    1.6119   -0.2241 C   0  0  0  0  0  0  0  0  0  0  0  0
   -3.0285   -0.2038   -1.6091 C   0  0  0  0  0  0  0  0  0  0  0  0
   -0.5625    0.8807    3.3839 C   0  0  0  0  0  0  0  0  0  0  0  0
   -1.1939   -3.1201    0.5360 C   0  0  0  0  0  0  0  0  0  0  0  0
   -1.4994   -2.5029    2.9877 C   0  0  0  0  0  0  0  0  0  0  0  0
    0.7585   -3.2871    2.1439 C   0  0  0  0  0  0  0  0  0  0  0  0
    1.7116    0.0033    3.5438 C   0  0  0  0  0  0  0  0  0  0  0  0
   -0.4305    1.5632    4.5986 C   0  0  0  0  0  0  0  0  0  0  0  0
    1.8656    0.6924    4.7627 C   0  0  0  0  0  0  0  0  0  0  0  0
    0.7945    1.4488    5.2707 C   0  0  0  0  0  0  0  0  0  0  0  0
    3.9186   -0.9504    3.6133 C   0  0  0  0  0  0  0  0  0  0  0  0
   -2.5066   -0.2401    1.1888 H   0  0  0  0  0  0  0  0  0  0  0  0
   -5.0477    1.4430   -0.7924 H   0  0  0  0  0  0  0  0  0  0  0  0
   -3.0789   -0.9161   -0.7676 H   0  0  0  0  0  0  0  0  0  0  0  0
   -4.1053    2.6642    0.0965 H   0  0  0  0  0  0  0  0  0  0  0  0
   -4.1623    0.9781    0.6780 H   0  0  0  0  0  0  0  0  0  0  0  0
   -1.3848    4.9094    1.2566 H   0  0  0  0  0  0  0  0  0  0  0  0
   -2.0159    2.0275   -3.0026 H   0  0  0  0  0  0  0  0  0  0  0  0
   -2.9664    3.2502   -2.0942 H   0  0  0  0  0  0  0  0  0  0  0  0
   -3.7957    1.9569   -2.9889 H   0  0  0  0  0  0  0  0  0  0  0  0
   -3.9584   -0.3227   -2.1941 H   0  0  0  0  0  0  0  0  0  0  0  0
    0.1676    4.8058   -0.8417 H   0  0  0  0  0  0  0  0  0  0  0  0
   -1.0667    3.9622   -1.8078 H   0  0  0  0  0  0  0  0  0  0  0  0
    0.5444    3.2268   -1.5868 H   0  0  0  0  0  0  0  0  0  0  0  0
    1.0109    4.0273    1.2026 H   0  0  0  0  0  0  0  0  0  0  0  0
    0.2937    2.7137    2.1604 H   0  0  0  0  0  0  0  0  0  0  0  0
    1.2979    2.3288    0.7293 H   0  0  0  0  0  0  0  0  0  0  0  0
   -2.1980    3.4149    1.8071 H   0  0  0  0  0  0  0  0  0  0  0  0
   -2.6424    4.1694    0.2399 H   0  0  0  0  0  0  0  0  0  0  0  0
   -2.1765   -0.4838   -2.2508 H   0  0  0  0  0  0  0  0  0  0  0  0
   -2.4382   -1.9667    2.7636 H   0  0  0  0  0  0  0  0  0  0  0  0
    0.4983   -4.3429    2.3417 H   0  0  0  0  0  0  0  0  0  0  0  0
    1.2398   -2.8757    3.0454 H   0  0  0  0  0  0  0  0  0  0  0  0
    1.4887   -3.2640    1.3198 H   0  0  0  0  0  0  0  0  0  0  0  0
   -1.4417   -4.1796    0.7269 H   0  0  0  0  0  0  0  0  0  0  0  0
   -2.1327   -2.6010    0.2748 H   0  0  0  0  0  0  0  0  0  0  0  0
   -1.7659   -3.5441    3.2466 H   0  0  0  0  0  0  0  0  0  0  0  0
   -1.0373   -2.0403    3.8765 H   0  0  0  0  0  0  0  0  0  0  0  0
   -0.5165   -3.0767   -0.3348 H   0  0  0  0  0  0  0  0  0  0  0  0
   -1.2526    2.1691    4.9862 H   0  0  0  0  0  0  0  0  0  0  0  0
    2.8052    0.6505    5.3174 H   0  0  0  0  0  0  0  0  0  0  0  0
    0.9298    1.9774    6.2198 H   0  0  0  0  0  0  0  0  0  0  0  0
    4.4626    0.0044    3.7319 H   0  0  0  0  0  0  0  0  0  0  0  0
    4.4949   -1.6283    2.9685 H   0  0  0  0  0  0  0  0  0  0  0  0
    3.7673   -1.4204    4.6020 H   0  0  0  0  0  0  0  0  0  0  0  0
  1  8  1  0
  1 13  1  0
  2  1  1  0
  2  5  1  0
  3  2  1  0
  3  9  1  0
  2  4  1  6
 35  6  1  6
  6 34  1  0
  7 34  1  0
  7 37  1  0
  7 38  1  0
 10 16  1  0
 10 11  1  0
 11 17  1  0
 12 18  1  0
 12 11  2  0
 13 12  1  0
 14 13  2  0
 14 15  1  0
 15 10  2  0
 19 14  1  0
 20 15  1  0
 21 26  2  0
 21 22  1  0
 22 23  2  0
 23 29  1  0
 23 24  1  0
 24  3  1  0
 25 30  1  0
 25 24  2  0
 26 25  1  0
 27 21  1  0
 28 22  1  0
 31 26  1  0
 32 45  1  0
 33 49  1  0
 33 53  1  0
 34 54  1  6
 34 32  1  0
 35 39  1  0
 35 40  1  0
 36 43  1  0
 36  6  1  1
 37 48  1  1
 37 47  1  0
 38 45  2  0
 38 49  1  0
 39 59  1  0
 39 70  1  0
 40 67  1  0
 40 68  1  0
 41 64  1  0
 41 35  1  0
 42 61  1  0
 42 36  1  0
 43 57  1  0
 43 58  1  0
 44 36  1  0
 44 56  1  0
 45 50  1  0
 46 77  1  0
 46 37  1  0
 47 79  1  0
 47 80  1  0
 48 74  1  0
 48 75  1  0
 49 51  2  0
 50 82  1  0
 50 52  2  0
 51 52  1  0
 51 83  1  0
 52 84  1  0
 53 85  1  0
 53 87  1  0
 55 43  1  0
 60 42  1  0
 62 42  1  0
 63 44  1  0
 65 41  1  0
 66 41  1  0
 69 40  1  0
 71 39  1  0
 72 44  1  0
 73 47  1  0
 76 48  1  0
 78 46  1  0
 81 46  1  0
 86 53  1  0
M  END
>  <Energy>  (4) 
-2323.927257

$$$$
197_cs_CONF_0005.xyz
     RDKit          3D

 87 89  0  0  1  0  0  0  0  0999 V2000
    2.5261   -1.2547   -1.3238 C   0  0  0  0  0  3  0  0  0  0  0  0
    1.7554   -0.8841   -2.4557 C   0  0  1  0  0  0  0  0  0  0  0  0
    1.4644    0.4808   -2.7277 C   0  0  0  0  0  3  0  0  0  0  0  0
    1.2519   -1.6658   -3.0376 H   0  0  0  0  0  0  0  0  0  0  0  0
    0.7010   -0.0782   -0.6975 Pd  0  0  0  0  0  1  0  0  0  0  0  0
   -1.1419    1.3278   -0.2019 P   0  0  0  0  0  0  0  0  0  0  0  0
    0.0382   -0.6835    1.4923 P   0  0  0  0  0  0  0  0  0  0  0  0
    3.2427   -0.5112   -0.9412 H   0  0  0  0  0  0  0  0  0  0  0  0
    2.1757    1.2268   -2.3399 H   0  0  0  0  0  0  0  0  0  0  0  0
    3.3459   -5.2901   -0.0654 C   0  0  0  0  0  0  0  0  0  0  0  0
    4.1884   -4.2356    0.3164 C   0  0  0  0  0  0  0  0  0  0  0  0
    3.9140   -2.9291   -0.1069 C   0  0  0  0  0  0  0  0  0  0  0  0
    2.7888   -2.6467   -0.9151 C   0  0  0  0  0  0  0  0  0  0  0  0
    1.9555   -3.7236   -1.3007 C   0  0  0  0  0  0  0  0  0  0  0  0
    2.2320   -5.0284   -0.8814 C   0  0  0  0  0  0  0  0  0  0  0  0
    3.5574   -6.3118    0.2654 H   0  0  0  0  0  0  0  0  0  0  0  0
    5.0662   -4.4318    0.9406 H   0  0  0  0  0  0  0  0  0  0  0  0
    4.5874   -2.1139    0.1796 H   0  0  0  0  0  0  0  0  0  0  0  0
    1.0749   -3.5385   -1.9249 H   0  0  0  0  0  0  0  0  0  0  0  0
    1.5734   -5.8475   -1.1881 H   0  0  0  0  0  0  0  0  0  0  0  0
   -0.9769    1.9472   -5.9580 C   0  0  0  0  0  0  0  0  0  0  0  0
   -0.0773    2.7958   -5.2950 C   0  0  0  0  0  0  0  0  0  0  0  0
    0.7126    2.3029   -4.2494 C   0  0  0  0  0  0  0  0  0  0  0  0
    0.6176    0.9531   -3.8392 C   0  0  0  0  0  0  0  0  0  0  0  0
   -0.2868    0.1079   -4.5249 C   0  0  0  0  0  0  0  0  0  0  0  0
   -1.0733    0.5999   -5.5713 C   0  0  0  0  0  0  0  0  0  0  0  0
   -1.5951    2.3302   -6.7760 H   0  0  0  0  0  0  0  0  0  0  0  0
    0.0144    3.8439   -5.5979 H   0  0  0  0  0  0  0  0  0  0  0  0
    1.4210    2.9689   -3.7450 H   0  0  0  0  0  0  0  0  0  0  0  0
   -0.3825   -0.9444   -4.2375 H   0  0  0  0  0  0  0  0  0  0  0  0
   -1.7670   -0.0703   -6.0893 H   0  0  0  0  0  0  0  0  0  0  0  0
   -1.8469    0.9431    2.5907 O   0  0  0  0  0  0  0  0  0  0  0  0
    2.7033   -0.3893    3.6582 O   0  0  0  0  0  0  0  0  0  0  0  0
   -1.5550    0.3008    1.3568 C   0  0  1  0  0  0  0  0  0  0  0  0
   -0.6871    3.1170    0.2615 C   0  0  1  0  0  0  0  0  0  0  0  0
   -2.7514    1.1772   -1.2248 C   0  0  2  0  0  0  0  0  0  0  0  0
   -0.4219   -2.4566    2.0033 C   0  0  2  0  0  0  0  0  0  0  0  0
    0.3903    0.2066    3.0450 C   0  0  0  0  0  0  0  0  0  0  0  0
   -1.8818    3.9033    0.8361 C   0  0  0  0  0  0  0  0  0  0  0  0
    0.4609    3.0683    1.2954 C   0  0  0  0  0  0  0  0  0  0  0  0
   -0.1293    3.7887   -1.0155 C   0  0  0  0  0  0  0  0  0  0  0  0
   -2.7176    2.1246   -2.4417 C   0  0  0  0  0  0  0  0  0  0  0  0
   -4.0115    1.4513   -0.3750 C   0  0  0  0  0  0  0  0  0  0  0  0
   -2.7691   -0.2859   -1.7287 C   0  0  0  0  0  0  0  0  0  0  0  0
   -0.7847    0.8905    3.4662 C   0  0  0  0  0  0  0  0  0  0  0  0
   -1.1067   -3.1003    0.7816 C   0  0  0  0  0  0  0  0  0  0  0  0
   -1.3664   -2.4266    3.2194 C   0  0  0  0  0  0  0  0  0  0  0  0
    0.8858   -3.1995    2.3499 C   0  0  0  0  0  0  0  0  0  0  0  0
    1.5015    0.1897    3.9243 C   0  0  0  0  0  0  0  0  0  0  0  0
   -0.8979    1.5014    4.7141 C   0  0  0  0  0  0  0  0  0  0  0  0
    1.3895    0.7895    5.1956 C   0  0  0  0  0  0  0  0  0  0  0  0
    0.2062    1.4256    5.5794 C   0  0  0  0  0  0  0  0  0  0  0  0
    3.1736   -0.4459    2.3126 C   0  0  0  0  0  0  0  0  0  0  0  0
   -2.4097   -0.3433    1.0888 H   0  0  0  0  0  0  0  0  0  0  0  0
   -4.9020    1.2640   -1.0028 H   0  0  0  0  0  0  0  0  0  0  0  0
   -2.8139   -1.0179   -0.9039 H   0  0  0  0  0  0  0  0  0  0  0  0
   -4.0631    2.4930   -0.0255 H   0  0  0  0  0  0  0  0  0  0  0  0
   -4.0875    0.7896    0.5045 H   0  0  0  0  0  0  0  0  0  0  0  0
   -1.5229    4.8878    1.1881 H   0  0  0  0  0  0  0  0  0  0  0  0
   -1.7957    2.0094   -3.0337 H   0  0  0  0  0  0  0  0  0  0  0  0
   -2.8250    3.1802   -2.1441 H   0  0  0  0  0  0  0  0  0  0  0  0
   -3.5704    1.8798   -3.1001 H   0  0  0  0  0  0  0  0  0  0  0  0
   -3.6678   -0.4394   -2.3531 H   0  0  0  0  0  0  0  0  0  0  0  0
    0.1953    4.8126   -0.7555 H   0  0  0  0  0  0  0  0  0  0  0  0
   -0.8653    3.8659   -1.8280 H   0  0  0  0  0  0  0  0  0  0  0  0
    0.7486    3.2394   -1.3948 H   0  0  0  0  0  0  0  0  0  0  0  0
    0.8929    4.0817    1.3802 H   0  0  0  0  0  0  0  0  0  0  0  0
    0.1188    2.7685    2.2953 H   0  0  0  0  0  0  0  0  0  0  0  0
    1.2693    2.3831    0.9790 H   0  0  0  0  0  0  0  0  0  0  0  0
   -2.3360    3.3773    1.6917 H   0  0  0  0  0  0  0  0  0  0  0  0
   -2.6568    4.0895    0.0747 H   0  0  0  0  0  0  0  0  0  0  0  0
   -1.8796   -0.5089   -2.3410 H   0  0  0  0  0  0  0  0  0  0  0  0
   -2.2933   -1.8617    3.0168 H   0  0  0  0  0  0  0  0  0  0  0  0
    0.6408   -4.2335    2.6529 H   0  0  0  0  0  0  0  0  0  0  0  0
    1.4153   -2.7204    3.1916 H   0  0  0  0  0  0  0  0  0  0  0  0
    1.5651   -3.2591    1.4833 H   0  0  0  0  0  0  0  0  0  0  0  0
   -1.2874   -4.1709    0.9853 H   0  0  0  0  0  0  0  0  0  0  0  0
   -2.0847   -2.6356    0.5654 H   0  0  0  0  0  0  0  0  0  0  0  0
   -1.6555   -3.4631    3.4727 H   0  0  0  0  0  0  0  0  0  0  0  0
   -0.8771   -1.9850    4.1035 H   0  0  0  0  0  0  0  0  0  0  0  0
   -0.4751   -3.0258   -0.1201 H   0  0  0  0  0  0  0  0  0  0  0  0
   -1.8210    2.0167    4.9887 H   0  0  0  0  0  0  0  0  0  0  0  0
    2.2615    0.7558    5.8537 H   0  0  0  0  0  0  0  0  0  0  0  0
    0.1466    1.8950    6.5664 H   0  0  0  0  0  0  0  0  0  0  0  0
    2.6681   -1.2358    1.7283 H   0  0  0  0  0  0  0  0  0  0  0  0
    4.2449   -0.6856    2.3798 H   0  0  0  0  0  0  0  0  0  0  0  0
    3.0349    0.5270    1.8047 H   0  0  0  0  0  0  0  0  0  0  0  0
  1  8  1  0
  1 13  1  0
  2  1  1  0
  2  5  1  0
  3  2  1  0
  3  9  1  0
  2  4  1  6
 35  6  1  6
  6 34  1  0
  7 37  1  0
  7 38  1  0
 10 16  1  0
 10 11  1  0
 11 17  1  0
 12 18  1  0
 12 11  2  0
 13 12  1  0
 14 13  2  0
 14 15  1  0
 15 10  2  0
 19 14  1  0
 20 15  1  0
 21 26  2  0
 21 22  1  0
 22 23  2  0
 23 24  1  0
 23 29  1  0
 24  3  1  0
 25 30  1  0
 25 24  2  0
 26 25  1  0
 27 21  1  0
 28 22  1  0
 31 26  1  0
 32 45  1  0
 33 49  1  0
 34 54  1  6
 34  7  1  0
 34 32  1  0
 35 39  1  0
 35 40  1  0
 36 43  1  0
 36  6  1  1
 37 48  1  1
 37 47  1  0
 38 45  2  0
 38 49  1  0
 39 59  1  0
 39 70  1  0
 40 67  1  0
 40 68  1  0
 41 64  1  0
 41 35  1  0
 42 61  1  0
 42 36  1  0
 43 57  1  0
 43 58  1  0
 44 36  1  0
 44 56  1  0
 45 50  1  0
 46 77  1  0
 46 37  1  0
 47 79  1  0
 47 80  1  0
 48 74  1  0
 48 75  1  0
 49 51  2  0
 50 82  1  0
 50 52  2  0
 51 52  1  0
 51 83  1  0
 52 84  1  0
 53 86  1  0
 53 33  1  0
 55 43  1  0
 60 42  1  0
 62 42  1  0
 63 44  1  0
 65 41  1  0
 66 41  1  0
 69 40  1  0
 71 39  1  0
 72 44  1  0
 73 47  1  0
 76 48  1  0
 78 46  1  0
 81 46  1  0
 85 53  1  0
 87 53  1  0
M  END
>  <Energy>  (5) 
-2323.919974

$$$$
