22_cs_CONF_0001.xyz
     RDKit          3D

 79 83  0  0  0  0  0  0  0  0999 V2000
    0.8405   -0.4062   -2.5315 C   0  0  0  0  0  3  0  0  0  0  0  0
    1.5686    0.7007   -2.0096 C   0  0  0  0  0  0  0  0  0  0  0  0
    2.4770    0.5259   -0.9273 C   0  0  0  0  0  3  0  0  0  0  0  0
    1.2909    1.7165   -2.3166 H   0  0  0  0  0  0  0  0  0  0  0  0
    0.4374   -0.1709   -0.3493 Pd  0  0  0  0  0  1  0  0  0  0  0  0
    0.4091    0.1713    1.9384 P   0  0  0  0  0  0  0  0  0  0  0  0
   -1.6958   -1.0374   -0.1254 P   0  0  0  0  0  0  0  0  0  0  0  0
    1.3122   -1.3972   -2.4418 H   0  0  0  0  0  0  0  0  0  0  0  0
    2.9512   -0.4635   -0.8327 H   0  0  0  0  0  0  0  0  0  0  0  0
   -2.1948   -0.2227   -5.5752 C   0  0  0  0  0  0  0  0  0  0  0  0
   -1.5579   -1.4344   -5.2700 C   0  0  0  0  0  0  0  0  0  0  0  0
   -0.5852   -1.4819   -4.2634 C   0  0  0  0  0  0  0  0  0  0  0  0
   -0.2251   -0.3178   -3.5469 C   0  0  0  0  0  0  0  0  0  0  0  0
   -0.9018    0.8890   -3.8420 C   0  0  0  0  0  0  0  0  0  0  0  0
   -1.8685    0.9357   -4.8502 C   0  0  0  0  0  0  0  0  0  0  0  0
   -2.9495   -0.1811   -6.3672 H   0  0  0  0  0  0  0  0  0  0  0  0
   -1.8115   -2.3443   -5.8239 H   0  0  0  0  0  0  0  0  0  0  0  0
   -0.0824   -2.4290   -4.0363 H   0  0  0  0  0  0  0  0  0  0  0  0
   -0.6766    1.7982   -3.2751 H   0  0  0  0  0  0  0  0  0  0  0  0
   -2.3789    1.8794   -5.0669 H   0  0  0  0  0  0  0  0  0  0  0  0
    4.6246    3.6497    1.1073 C   0  0  0  0  0  0  0  0  0  0  0  0
    5.0336    2.3123    1.2127 C   0  0  0  0  0  0  0  0  0  0  0  0
    4.3127    1.3045    0.5598 C   0  0  0  0  0  0  0  0  0  0  0  0
    3.1729    1.6145   -0.2168 C   0  0  0  0  0  0  0  0  0  0  0  0
    2.7524    2.9635   -0.2840 C   0  0  0  0  0  0  0  0  0  0  0  0
    3.4757    3.9685    0.3641 C   0  0  0  0  0  0  0  0  0  0  0  0
    5.1915    4.4404    1.6093 H   0  0  0  0  0  0  0  0  0  0  0  0
    5.9226    2.0531    1.7971 H   0  0  0  0  0  0  0  0  0  0  0  0
    4.6421    0.2619    0.6371 H   0  0  0  0  0  0  0  0  0  0  0  0
    1.8495    3.2307   -0.8426 H   0  0  0  0  0  0  0  0  0  0  0  0
    3.1375    5.0073    0.2972 H   0  0  0  0  0  0  0  0  0  0  0  0
   -2.9974   -0.2338   -1.1237 C   0  0  0  0  0  0  0  0  0  0  0  0
   -1.9015   -2.8415   -0.3480 C   0  0  0  0  0  0  0  0  0  0  0  0
    1.4807   -0.8960    2.9671 C   0  0  0  0  0  0  0  0  0  0  0  0
    0.6926    1.8888    2.4927 C   0  0  0  0  0  0  0  0  0  0  0  0
   -2.1945   -0.7259    1.6195 C   0  0  0  0  0  0  0  0  0  0  0  0
   -1.3035   -0.2152    2.4932 C   0  0  0  0  0  0  0  0  0  0  0  0
   -3.3598    1.0950   -0.8125 C   0  0  0  0  0  0  0  0  0  0  0  0
   -3.1592   -3.4631   -0.1902 C   0  0  0  0  0  0  0  0  0  0  0  0
    2.2856   -1.8628    2.3330 C   0  0  0  0  0  0  0  0  0  0  0  0
   -0.2850    2.8625    2.1922 C   0  0  0  0  0  0  0  0  0  0  0  0
   -3.5611   -0.8670   -2.2487 C   0  0  0  0  0  0  0  0  0  0  0  0
   -0.7691   -3.6216   -0.6538 C   0  0  0  0  0  0  0  0  0  0  0  0
    1.4937   -0.7872    4.3746 C   0  0  0  0  0  0  0  0  0  0  0  0
    1.8985    2.2759    3.1092 C   0  0  0  0  0  0  0  0  0  0  0  0
   -4.2968    1.7704   -1.6037 C   0  0  0  0  0  0  0  0  0  0  0  0
   -3.2747   -4.8505   -0.3418 C   0  0  0  0  0  0  0  0  0  0  0  0
    3.1008   -2.7101    3.0965 C   0  0  0  0  0  0  0  0  0  0  0  0
   -0.0671    4.2033    2.5307 C   0  0  0  0  0  0  0  0  0  0  0  0
   -4.4975   -0.1830   -3.0356 C   0  0  0  0  0  0  0  0  0  0  0  0
   -0.8914   -5.0100   -0.8055 C   0  0  0  0  0  0  0  0  0  0  0  0
    2.3086   -1.6378    5.1319 C   0  0  0  0  0  0  0  0  0  0  0  0
    2.1087    3.6206    3.4432 C   0  0  0  0  0  0  0  0  0  0  0  0
   -4.8691    1.1304   -2.7149 C   0  0  0  0  0  0  0  0  0  0  0  0
   -2.1431   -5.6235   -0.6497 C   0  0  0  0  0  0  0  0  0  0  0  0
    3.1121   -2.5975    4.4945 C   0  0  0  0  0  0  0  0  0  0  0  0
    1.1297    4.5833    3.1593 C   0  0  0  0  0  0  0  0  0  0  0  0
   -3.2157   -0.9871    1.9300 H   0  0  0  0  0  0  0  0  0  0  0  0
   -1.5679   -0.0430    3.5457 H   0  0  0  0  0  0  0  0  0  0  0  0
   -2.9134    1.5971    0.0537 H   0  0  0  0  0  0  0  0  0  0  0  0
   -4.0477   -2.8643    0.0392 H   0  0  0  0  0  0  0  0  0  0  0  0
    2.2685   -1.9473    1.2401 H   0  0  0  0  0  0  0  0  0  0  0  0
   -1.2195    2.5683    1.7003 H   0  0  0  0  0  0  0  0  0  0  0  0
   -3.2676   -1.8863   -2.5157 H   0  0  0  0  0  0  0  0  0  0  0  0
    0.2064   -3.1352   -0.7708 H   0  0  0  0  0  0  0  0  0  0  0  0
    0.8782   -0.0328    4.8772 H   0  0  0  0  0  0  0  0  0  0  0  0
    2.6744    1.5349    3.3225 H   0  0  0  0  0  0  0  0  0  0  0  0
   -4.5835    2.7965   -1.3514 H   0  0  0  0  0  0  0  0  0  0  0  0
   -4.2510   -5.3308   -0.2201 H   0  0  0  0  0  0  0  0  0  0  0  0
    3.7271   -3.4581    2.5996 H   0  0  0  0  0  0  0  0  0  0  0  0
   -0.8333    4.9527    2.3067 H   0  0  0  0  0  0  0  0  0  0  0  0
   -4.9312   -0.6800   -3.9088 H   0  0  0  0  0  0  0  0  0  0  0  0
   -0.0094   -5.6125   -1.0454 H   0  0  0  0  0  0  0  0  0  0  0  0
    2.3176   -1.5517    6.2233 H   0  0  0  0  0  0  0  0  0  0  0  0
    3.0480    3.9152    3.9212 H   0  0  0  0  0  0  0  0  0  0  0  0
   -5.6029    1.6587   -3.3322 H   0  0  0  0  0  0  0  0  0  0  0  0
   -2.2389   -6.7077   -0.7681 H   0  0  0  0  0  0  0  0  0  0  0  0
    3.7485   -3.2592    5.0911 H   0  0  0  0  0  0  0  0  0  0  0  0
    1.2990    5.6320    3.4244 H   0  0  0  0  0  0  0  0  0  0  0  0
  1  8  1  0
  1  2  1  0
  2  3  1  0
  2  5  1  0
  3  9  1  0
  3 24  1  0
  4  2  1  0
  6 35  1  0
  6 37  1  0
  6 34  1  0
  7 36  1  0
 10 11  2  0
 10 15  1  0
 11 12  1  0
 12 18  1  0
 12 13  2  0
 13  1  1  0
 14 13  1  0
 14 19  1  0
 15 14  2  0
 16 10  1  0
 17 11  1  0
 20 15  1  0
 21 22  1  0
 21 27  1  0
 22 28  1  0
 23 29  1  0
 23 22  2  0
 24 23  1  0
 25 24  2  0
 25 26  1  0
 26 21  2  0
 30 25  1  0
 31 26  1  0
 32 38  1  0
 32  7  1  0
 33 39  1  0
 33  7  1  0
 34 44  1  0
 35 45  1  0
 36 58  1  0
 36 37  2  0
 37 59  1  0
 38 60  1  0
 39 61  1  0
 40 34  2  0
 40 48  1  0
 41 35  2  0
 41 49  1  0
 42 32  2  0
 43 33  2  0
 44 66  1  0
 44 52  2  0
 45 67  1  0
 45 53  2  0
 46 68  1  0
 46 38  2  0
 47 69  1  0
 47 39  2  0
 48 56  2  0
 49 57  2  0
 50 54  2  0
 50 42  1  0
 51 43  1  0
 51 55  2  0
 52 74  1  0
 53 75  1  0
 54 46  1  0
 55 47  1  0
 56 78  1  0
 56 52  1  0
 57 79  1  0
 57 53  1  0
 62 40  1  0
 63 41  1  0
 64 42  1  0
 65 43  1  0
 70 48  1  0
 71 49  1  0
 72 50  1  0
 73 51  1  0
 76 54  1  0
 77 55  1  0
M  END
>  <Energy>  (1) 
-2394.923526

$$$$
22_cs_CONF_0003.xyz
     RDKit          3D

 79 83  0  0  0  0  0  0  0  0999 V2000
    0.9848   -0.7621   -2.4439 C   0  0  0  0  0  3  0  0  0  0  0  0
    1.6867    0.4038   -2.0297 C   0  0  0  0  0  0  0  0  0  0  0  0
    2.5590    0.3531   -0.9063 C   0  0  0  0  0  3  0  0  0  0  0  0
    1.4156    1.3719   -2.4701 H   0  0  0  0  0  0  0  0  0  0  0  0
    0.4882   -0.2680   -0.3172 Pd  0  0  0  0  0  1  0  0  0  0  0  0
    0.4316    0.1220    1.9691 P   0  0  0  0  0  0  0  0  0  0  0  0
   -1.6712   -1.0857   -0.0906 P   0  0  0  0  0  0  0  0  0  0  0  0
    1.4585   -1.7314   -2.2228 H   0  0  0  0  0  0  0  0  0  0  0  0
    2.9966   -0.6273   -0.6620 H   0  0  0  0  0  0  0  0  0  0  0  0
   -2.0503   -0.9723   -5.4862 C   0  0  0  0  0  0  0  0  0  0  0  0
   -1.1655   -2.0419   -5.2845 C   0  0  0  0  0  0  0  0  0  0  0  0
   -0.1816   -1.9633   -4.2900 C   0  0  0  0  0  0  0  0  0  0  0  0
   -0.0482   -0.8017   -3.4970 C   0  0  0  0  0  0  0  0  0  0  0  0
   -0.9390    0.2740   -3.7197 C   0  0  0  0  0  0  0  0  0  0  0  0
   -1.9344    0.1860   -4.6972 C   0  0  0  0  0  0  0  0  0  0  0  0
   -2.8290   -1.0385   -6.2530 H   0  0  0  0  0  0  0  0  0  0  0  0
   -1.2475   -2.9461   -5.8966 H   0  0  0  0  0  0  0  0  0  0  0  0
    0.4933   -2.8097   -4.1230 H   0  0  0  0  0  0  0  0  0  0  0  0
   -0.8749    1.1711   -3.0954 H   0  0  0  0  0  0  0  0  0  0  0  0
   -2.6296    1.0198   -4.8390 H   0  0  0  0  0  0  0  0  0  0  0  0
    4.5726    3.6453    0.9995 C   0  0  0  0  0  0  0  0  0  0  0  0
    4.8441    2.3203    1.3717 C   0  0  0  0  0  0  0  0  0  0  0  0
    4.1912    1.2616    0.7296 C   0  0  0  0  0  0  0  0  0  0  0  0
    3.2457    1.5043   -0.2935 C   0  0  0  0  0  0  0  0  0  0  0  0
    2.9916    2.8450   -0.6663 C   0  0  0  0  0  0  0  0  0  0  0  0
    3.6485    3.9011   -0.0272 C   0  0  0  0  0  0  0  0  0  0  0  0
    5.0839    4.4746    1.4985 H   0  0  0  0  0  0  0  0  0  0  0  0
    5.5717    2.1090    2.1625 H   0  0  0  0  0  0  0  0  0  0  0  0
    4.4078    0.2292    1.0245 H   0  0  0  0  0  0  0  0  0  0  0  0
    2.2735    3.0694   -1.4623 H   0  0  0  0  0  0  0  0  0  0  0  0
    3.4409    4.9322   -0.3319 H   0  0  0  0  0  0  0  0  0  0  0  0
   -2.9716    0.0287   -0.7474 C   0  0  0  0  0  0  0  0  0  0  0  0
   -2.0336   -2.7629   -0.7052 C   0  0  0  0  0  0  0  0  0  0  0  0
    1.7346   -0.7161    2.9411 C   0  0  0  0  0  0  0  0  0  0  0  0
    0.3772    1.8563    2.5425 C   0  0  0  0  0  0  0  0  0  0  0  0
   -2.0235   -1.1401    1.7139 C   0  0  0  0  0  0  0  0  0  0  0  0
   -1.1384   -0.6167    2.5855 C   0  0  0  0  0  0  0  0  0  0  0  0
   -2.6642    1.4007   -0.8595 C   0  0  0  0  0  0  0  0  0  0  0  0
   -2.4046   -2.9541   -2.0537 C   0  0  0  0  0  0  0  0  0  0  0  0
    2.8014   -0.0007    3.5220 C   0  0  0  0  0  0  0  0  0  0  0  0
    0.4036    2.8842    1.5813 C   0  0  0  0  0  0  0  0  0  0  0  0
   -4.2577   -0.4303   -1.0973 C   0  0  0  0  0  0  0  0  0  0  0  0
   -1.8206   -3.8823    0.1278 C   0  0  0  0  0  0  0  0  0  0  0  0
    1.7176   -2.1267    3.0078 C   0  0  0  0  0  0  0  0  0  0  0  0
    0.2924    2.1788    3.9147 C   0  0  0  0  0  0  0  0  0  0  0  0
   -3.6266    2.3017   -1.3314 C   0  0  0  0  0  0  0  0  0  0  0  0
   -2.5766   -4.2525   -2.5512 C   0  0  0  0  0  0  0  0  0  0  0  0
    3.8318   -0.6942    4.1735 C   0  0  0  0  0  0  0  0  0  0  0  0
    0.3536    4.2255    1.9850 C   0  0  0  0  0  0  0  0  0  0  0  0
   -5.2143    0.4759   -1.5752 C   0  0  0  0  0  0  0  0  0  0  0  0
   -1.9969   -5.1764   -0.3789 C   0  0  0  0  0  0  0  0  0  0  0  0
    2.7486   -2.8102    3.6636 C   0  0  0  0  0  0  0  0  0  0  0  0
    0.2366    3.5205    4.3110 C   0  0  0  0  0  0  0  0  0  0  0  0
   -4.9004    1.8384   -1.6963 C   0  0  0  0  0  0  0  0  0  0  0  0
   -2.3753   -5.3632   -1.7179 C   0  0  0  0  0  0  0  0  0  0  0  0
    3.8075   -2.0947    4.2466 C   0  0  0  0  0  0  0  0  0  0  0  0
    0.2685    4.5431    3.3479 C   0  0  0  0  0  0  0  0  0  0  0  0
   -2.9846   -1.5552    2.0481 H   0  0  0  0  0  0  0  0  0  0  0  0
   -1.3427   -0.5921    3.6649 H   0  0  0  0  0  0  0  0  0  0  0  0
   -1.6659    1.7560   -0.5768 H   0  0  0  0  0  0  0  0  0  0  0  0
   -2.5634   -2.0943   -2.7122 H   0  0  0  0  0  0  0  0  0  0  0  0
    2.8300    1.0915    3.4636 H   0  0  0  0  0  0  0  0  0  0  0  0
    0.4811    2.6269    0.5196 H   0  0  0  0  0  0  0  0  0  0  0  0
   -4.5109   -1.4914   -1.0049 H   0  0  0  0  0  0  0  0  0  0  0  0
   -1.5213   -3.7441    1.1733 H   0  0  0  0  0  0  0  0  0  0  0  0
    0.8958   -2.6885    2.5480 H   0  0  0  0  0  0  0  0  0  0  0  0
    0.2810    1.3862    4.6712 H   0  0  0  0  0  0  0  0  0  0  0  0
   -3.3819    3.3654   -1.4174 H   0  0  0  0  0  0  0  0  0  0  0  0
   -2.8667   -4.3918   -3.5976 H   0  0  0  0  0  0  0  0  0  0  0  0
    4.6562   -0.1344    4.6274 H   0  0  0  0  0  0  0  0  0  0  0  0
    0.3880    5.0213    1.2340 H   0  0  0  0  0  0  0  0  0  0  0  0
   -6.2104    0.1153   -1.8516 H   0  0  0  0  0  0  0  0  0  0  0  0
   -1.8411   -6.0411    0.2743 H   0  0  0  0  0  0  0  0  0  0  0  0
    2.7266   -3.9033    3.7206 H   0  0  0  0  0  0  0  0  0  0  0  0
    0.1701    3.7702    5.3749 H   0  0  0  0  0  0  0  0  0  0  0  0
   -5.6516    2.5411   -2.0716 H   0  0  0  0  0  0  0  0  0  0  0  0
   -2.5135   -6.3757   -2.1108 H   0  0  0  0  0  0  0  0  0  0  0  0
    4.6129   -2.6307    4.7591 H   0  0  0  0  0  0  0  0  0  0  0  0
    0.2288    5.5906    3.6640 H   0  0  0  0  0  0  0  0  0  0  0  0
  1  8  1  0
  1  2  1  0
  2  3  1  0
  2  5  1  0
  3  9  1  0
  3 24  1  0
  4  2  1  0
  6 35  1  0
  6 37  1  0
  6 34  1  0
  7 36  1  0
 10 11  2  0
 10 15  1  0
 11 12  1  0
 12 18  1  0
 12 13  2  0
 13  1  1  0
 14 13  1  0
 14 19  1  0
 15 14  2  0
 16 10  1  0
 17 11  1  0
 20 15  1  0
 21 22  1  0
 21 27  1  0
 22 28  1  0
 23 29  1  0
 23 22  2  0
 24 23  1  0
 25 24  2  0
 25 26  1  0
 26 21  2  0
 30 25  1  0
 31 26  1  0
 32  7  1  0
 33  7  1  0
 33 43  1  0
 34 44  2  0
 34 40  1  0
 35 45  1  0
 36 58  1  0
 36 37  2  0
 37 59  1  0
 38 32  1  0
 38 60  1  0
 39 33  2  0
 40 48  2  0
 41 49  1  0
 41 35  2  0
 42 64  1  0
 42 32  2  0
 43 65  1  0
 44 52  1  0
 45 53  2  0
 45 67  1  0
 46 38  2  0
 47 39  1  0
 47 55  2  0
 48 56  1  0
 48 70  1  0
 49 57  2  0
 50 42  1  0
 51 43  2  0
 51 73  1  0
 52 74  1  0
 52 56  2  0
 53 75  1  0
 54 50  2  0
 54 46  1  0
 55 51  1  0
 56 78  1  0
 57 79  1  0
 57 53  1  0
 61 39  1  0
 62 40  1  0
 63 41  1  0
 66 44  1  0
 68 46  1  0
 69 47  1  0
 71 49  1  0
 72 50  1  0
 76 54  1  0
 77 55  1  0
M  END
>  <Energy>  (2) 
-2394.922987

$$$$
22_cs_CONF_0004.xyz
     RDKit          3D

 79 83  0  0  0  0  0  0  0  0999 V2000
    0.9485   -0.6616   -2.4649 C   0  0  0  0  0  3  0  0  0  0  0  0
    1.6683    0.4716   -2.0003 C   0  0  0  0  0  0  0  0  0  0  0  0
    2.5551    0.3595   -0.8898 C   0  0  0  0  0  3  0  0  0  0  0  0
    1.4184    1.4700   -2.3816 H   0  0  0  0  0  0  0  0  0  0  0  0
    0.4886   -0.2661   -0.3020 Pd  0  0  0  0  0  1  0  0  0  0  0  0
    0.4507    0.0978    1.9879 P   0  0  0  0  0  0  0  0  0  0  0  0
   -1.6930   -1.0169   -0.0820 P   0  0  0  0  0  0  0  0  0  0  0  0
    1.3822   -1.6488   -2.2395 H   0  0  0  0  0  0  0  0  0  0  0  0
    3.0436   -0.6152   -0.7358 H   0  0  0  0  0  0  0  0  0  0  0  0
   -2.0582   -0.8072   -5.5386 C   0  0  0  0  0  0  0  0  0  0  0  0
   -1.6132    0.4390   -5.0656 C   0  0  0  0  0  0  0  0  0  0  0  0
   -0.6311    0.5080   -4.0736 C   0  0  0  0  0  0  0  0  0  0  0  0
   -0.0723   -0.6707   -3.5263 C   0  0  0  0  0  0  0  0  0  0  0  0
   -0.5249   -1.9174   -4.0172 C   0  0  0  0  0  0  0  0  0  0  0  0
   -1.5058   -1.9849   -5.0138 C   0  0  0  0  0  0  0  0  0  0  0  0
   -2.8257   -0.8569   -6.3176 H   0  0  0  0  0  0  0  0  0  0  0  0
   -2.0356    1.3623   -5.4752 H   0  0  0  0  0  0  0  0  0  0  0  0
   -0.2977    1.4900   -3.7226 H   0  0  0  0  0  0  0  0  0  0  0  0
   -0.1026   -2.8408   -3.6060 H   0  0  0  0  0  0  0  0  0  0  0  0
   -1.8392   -2.9610   -5.3814 H   0  0  0  0  0  0  0  0  0  0  0  0
    4.5216    3.6600    1.0528 C   0  0  0  0  0  0  0  0  0  0  0  0
    5.1488    2.4080    0.9649 C   0  0  0  0  0  0  0  0  0  0  0  0
    4.5041    1.3418    0.3242 C   0  0  0  0  0  0  0  0  0  0  0  0
    3.2207    1.5090   -0.2445 C   0  0  0  0  0  0  0  0  0  0  0  0
    2.6044    2.7782   -0.1518 C   0  0  0  0  0  0  0  0  0  0  0  0
    3.2478    3.8409    0.4896 C   0  0  0  0  0  0  0  0  0  0  0  0
    5.0221    4.4916    1.5593 H   0  0  0  0  0  0  0  0  0  0  0  0
    6.1456    2.2617    1.3938 H   0  0  0  0  0  0  0  0  0  0  0  0
    4.9996    0.3668    0.2547 H   0  0  0  0  0  0  0  0  0  0  0  0
    1.5966    2.9234   -0.5554 H   0  0  0  0  0  0  0  0  0  0  0  0
    2.7460    4.8104    0.5659 H   0  0  0  0  0  0  0  0  0  0  0  0
   -2.9738    0.0201   -0.8781 C   0  0  0  0  0  0  0  0  0  0  0  0
   -2.0396   -2.7523   -0.5324 C   0  0  0  0  0  0  0  0  0  0  0  0
    1.6414   -0.8478    2.9987 C   0  0  0  0  0  0  0  0  0  0  0  0
    0.5477    1.8615    2.4777 C   0  0  0  0  0  0  0  0  0  0  0  0
   -2.1132   -0.9055    1.7071 C   0  0  0  0  0  0  0  0  0  0  0  0
   -1.2082   -0.4245    2.5820 C   0  0  0  0  0  0  0  0  0  0  0  0
   -2.5837    1.2516   -1.4393 C   0  0  0  0  0  0  0  0  0  0  0  0
   -2.6544   -3.0845   -1.7570 C   0  0  0  0  0  0  0  0  0  0  0  0
    3.0095   -0.5005    2.9448 C   0  0  0  0  0  0  0  0  0  0  0  0
   -0.2570    2.7612    1.7442 C   0  0  0  0  0  0  0  0  0  0  0  0
   -4.3338   -0.3576   -0.8931 C   0  0  0  0  0  0  0  0  0  0  0  0
   -1.5631   -3.7772    0.3144 C   0  0  0  0  0  0  0  0  0  0  0  0
    1.2377   -1.9737    3.7461 C   0  0  0  0  0  0  0  0  0  0  0  0
    1.3790    2.3451    3.5052 C   0  0  0  0  0  0  0  0  0  0  0  0
   -3.5406    2.0973   -2.0163 C   0  0  0  0  0  0  0  0  0  0  0  0
   -2.8037   -4.4313   -2.1181 C   0  0  0  0  0  0  0  0  0  0  0  0
    3.9524   -1.2575    3.6506 C   0  0  0  0  0  0  0  0  0  0  0  0
   -0.2283    4.1290    2.0378 C   0  0  0  0  0  0  0  0  0  0  0  0
   -5.2853    0.4915   -1.4721 C   0  0  0  0  0  0  0  0  0  0  0  0
   -1.7198   -5.1190   -0.0535 C   0  0  0  0  0  0  0  0  0  0  0  0
    2.1898   -2.7283    4.4464 C   0  0  0  0  0  0  0  0  0  0  0  0
    1.4139    3.7195    3.7826 C   0  0  0  0  0  0  0  0  0  0  0  0
   -4.8902    1.7169   -2.0340 C   0  0  0  0  0  0  0  0  0  0  0  0
   -2.3402   -5.4477   -1.2701 C   0  0  0  0  0  0  0  0  0  0  0  0
    3.5453   -2.3710    4.4029 C   0  0  0  0  0  0  0  0  0  0  0  0
    0.6145    4.6109    3.0527 C   0  0  0  0  0  0  0  0  0  0  0  0
   -3.1227   -1.1997    2.0266 H   0  0  0  0  0  0  0  0  0  0  0  0
   -1.4478   -0.2954    3.6466 H   0  0  0  0  0  0  0  0  0  0  0  0
   -1.5248    1.5348   -1.4270 H   0  0  0  0  0  0  0  0  0  0  0  0
   -3.0126   -2.2979   -2.4275 H   0  0  0  0  0  0  0  0  0  0  0  0
    3.3365    0.3609    2.3535 H   0  0  0  0  0  0  0  0  0  0  0  0
   -0.9056    2.3855    0.9435 H   0  0  0  0  0  0  0  0  0  0  0  0
   -4.6476   -1.3143   -0.4614 H   0  0  0  0  0  0  0  0  0  0  0  0
   -1.0703   -3.5247    1.2607 H   0  0  0  0  0  0  0  0  0  0  0  0
    0.1829   -2.2664    3.7839 H   0  0  0  0  0  0  0  0  0  0  0  0
    1.9986    1.6575    4.0883 H   0  0  0  0  0  0  0  0  0  0  0  0
   -3.2311    3.0502   -2.4579 H   0  0  0  0  0  0  0  0  0  0  0  0
   -3.2853   -4.6841   -3.0684 H   0  0  0  0  0  0  0  0  0  0  0  0
    5.0100   -0.9766    3.6103 H   0  0  0  0  0  0  0  0  0  0  0  0
   -0.8596    4.8210    1.4710 H   0  0  0  0  0  0  0  0  0  0  0  0
   -6.3396    0.1969   -1.4842 H   0  0  0  0  0  0  0  0  0  0  0  0
   -1.3570   -5.9106    0.6100 H   0  0  0  0  0  0  0  0  0  0  0  0
    1.8687   -3.5972    5.0299 H   0  0  0  0  0  0  0  0  0  0  0  0
    2.0673    4.0924    4.5779 H   0  0  0  0  0  0  0  0  0  0  0  0
   -5.6384    2.3756   -2.4867 H   0  0  0  0  0  0  0  0  0  0  0  0
   -2.4617   -6.4976   -1.5556 H   0  0  0  0  0  0  0  0  0  0  0  0
    4.2851   -2.9614    4.9532 H   0  0  0  0  0  0  0  0  0  0  0  0
    0.6450    5.6823    3.2760 H   0  0  0  0  0  0  0  0  0  0  0  0
  1  8  1  0
  1  2  1  0
  2  3  1  0
  2  5  1  0
  3  9  1  0
  3 24  1  0
  4  2  1  0
  6 35  1  0
  6 37  1  0
  6 34  1  0
  7 36  1  0
 10 11  2  0
 10 15  1  0
 11 12  1  0
 12 18  1  0
 12 13  2  0
 13  1  1  0
 14 19  1  0
 14 13  1  0
 15 14  2  0
 16 10  1  0
 17 11  1  0
 20 15  1  0
 21 27  1  0
 22 21  1  0
 22 28  1  0
 23 22  2  0
 24 25  2  0
 24 23  1  0
 25 26  1  0
 26 31  1  0
 26 21  2  0
 29 23  1  0
 30 25  1  0
 32  7  1  0
 33  7  1  0
 33 43  1  0
 34 44  1  0
 35 45  1  0
 36 58  1  0
 36 37  2  0
 37 59  1  0
 38 60  1  0
 38 32  2  0
 39 33  2  0
 40 34  2  0
 40 48  1  0
 41 49  1  0
 41 35  2  0
 42 32  1  0
 42 64  1  0
 43 65  1  0
 44 66  1  0
 44 52  2  0
 45 53  2  0
 45 67  1  0
 46 38  1  0
 47 39  1  0
 47 55  2  0
 48 56  2  0
 49 57  2  0
 50 42  2  0
 51 43  2  0
 51 73  1  0
 52 74  1  0
 53 75  1  0
 54 46  2  0
 54 50  1  0
 55 51  1  0
 56 52  1  0
 56 78  1  0
 57 79  1  0
 57 53  1  0
 61 39  1  0
 62 40  1  0
 63 41  1  0
 68 46  1  0
 69 47  1  0
 70 48  1  0
 71 49  1  0
 72 50  1  0
 76 54  1  0
 77 55  1  0
M  END
>  <Energy>  (3) 
-2394.922317

$$$$
