34_cs_CONF_0001.xyz
     RDKit          3D

 87 91  0  0  1  0  0  0  0  0999 V2000
    0.8999   -2.8553   -2.0030 C   0  0  0  0  0  3  0  0  0  0  0  0
    2.0897   -2.0795   -2.0761 C   0  0  1  0  0  0  0  0  0  0  0  0
    2.9246   -1.9375   -0.9278 C   0  0  0  0  0  3  0  0  0  0  0  0
    2.2616   -1.4429   -2.9533 H   0  0  0  0  0  0  0  0  0  0  0  0
    0.8833   -1.2162   -0.4740 Pd  0  0  0  0  0  1  0  0  0  0  0  0
    1.2489    0.4021    1.1364 P   0  0  0  0  0  0  0  0  0  0  0  0
   -1.3512   -0.5119   -0.3604 P   0  0  0  0  0  0  0  0  0  0  0  0
    0.8919   -3.6865   -1.2805 H   0  0  0  0  0  0  0  0  0  0  0  0
    2.9369   -2.7756   -0.2139 H   0  0  0  0  0  0  0  0  0  0  0  0
   -2.1474   -3.1389   -5.0337 C   0  0  0  0  0  0  0  0  0  0  0  0
   -1.3434   -1.9879   -4.9589 C   0  0  0  0  0  0  0  0  0  0  0  0
   -0.3440   -1.8875   -3.9858 C   0  0  0  0  0  0  0  0  0  0  0  0
   -0.1241   -2.9377   -3.0641 C   0  0  0  0  0  0  0  0  0  0  0  0
   -0.9373   -4.0899   -3.1536 C   0  0  0  0  0  0  0  0  0  0  0  0
   -1.9376   -4.1904   -4.1297 C   0  0  0  0  0  0  0  0  0  0  0  0
   -2.9303   -3.2143   -5.7951 H   0  0  0  0  0  0  0  0  0  0  0  0
   -1.5005   -1.1640   -5.6631 H   0  0  0  0  0  0  0  0  0  0  0  0
    0.2580   -0.9740   -3.9244 H   0  0  0  0  0  0  0  0  0  0  0  0
   -0.7764   -4.9176   -2.4537 H   0  0  0  0  0  0  0  0  0  0  0  0
   -2.5541   -5.0934   -4.1845 H   0  0  0  0  0  0  0  0  0  0  0  0
    6.2102    0.8095   -0.4572 C   0  0  0  0  0  0  0  0  0  0  0  0
    6.0721   -0.2976    0.3936 C   0  0  0  0  0  0  0  0  0  0  0  0
    5.0111   -1.1940    0.2145 C   0  0  0  0  0  0  0  0  0  0  0  0
    4.0620   -1.0010   -0.8142 C   0  0  0  0  0  0  0  0  0  0  0  0
    4.2163    0.1175   -1.6665 C   0  0  0  0  0  0  0  0  0  0  0  0
    5.2804    1.0088   -1.4917 C   0  0  0  0  0  0  0  0  0  0  0  0
    7.0405    1.5098   -0.3211 H   0  0  0  0  0  0  0  0  0  0  0  0
    6.7984   -0.4687    1.1950 H   0  0  0  0  0  0  0  0  0  0  0  0
    4.9143   -2.0603    0.8787 H   0  0  0  0  0  0  0  0  0  0  0  0
    3.4891    0.3039   -2.4644 H   0  0  0  0  0  0  0  0  0  0  0  0
    5.3845    1.8672   -2.1636 H   0  0  0  0  0  0  0  0  0  0  0  0
   -1.5198    1.0057    0.8013 C   0  0  1  0  0  0  0  0  0  0  0  0
   -0.1116    1.6496    0.7770 C   0  0  1  0  0  0  0  0  0  0  0  0
   -2.8170   -1.7100   -0.0569 C   0  0  1  0  0  0  0  0  0  0  0  0
    1.1734   -0.2547    2.9174 C   0  0  2  0  0  0  0  0  0  0  0  0
   -2.6193    1.8088    0.1200 C   0  0  0  0  0  0  0  0  0  0  0  0
    0.3228    2.8856    1.5516 C   0  0  0  0  0  0  0  0  0  0  0  0
   -1.7939    0.5505   -1.8363 C   0  0  0  0  0  0  0  0  0  0  0  0
    2.5095    1.7685    1.1380 C   0  0  0  0  0  0  0  0  0  0  0  0
   -2.7406    1.5903   -1.2717 C   0  0  0  0  0  0  0  0  0  0  0  0
    1.7330    2.9522    1.7005 C   0  0  0  0  0  0  0  0  0  0  0  0
   -3.6130   -1.8877   -1.3677 C   0  0  0  0  0  0  0  0  0  0  0  0
   -2.2018   -3.0647    0.3604 C   0  0  0  0  0  0  0  0  0  0  0  0
   -3.7478   -1.1920    1.0593 C   0  0  0  0  0  0  0  0  0  0  0  0
    0.1286   -1.3904    2.9693 C   0  0  0  0  0  0  0  0  0  0  0  0
    0.8371    0.8209    3.9692 C   0  0  0  0  0  0  0  0  0  0  0  0
    2.5719   -0.8602    3.1883 C   0  0  0  0  0  0  0  0  0  0  0  0
   -3.5202    2.6652    0.7724 C   0  0  0  0  0  0  0  0  0  0  0  0
   -0.4803    3.9147    2.0586 C   0  0  0  0  0  0  0  0  0  0  0  0
   -3.7248    2.2655   -2.0087 C   0  0  0  0  0  0  0  0  0  0  0  0
    2.3202    4.0394    2.3607 C   0  0  0  0  0  0  0  0  0  0  0  0
   -4.5065    3.3359    0.0324 C   0  0  0  0  0  0  0  0  0  0  0  0
    0.1149    4.9971    2.7282 C   0  0  0  0  0  0  0  0  0  0  0  0
   -4.6012    3.1458   -1.3549 C   0  0  0  0  0  0  0  0  0  0  0  0
    1.5073    5.0614    2.8781 C   0  0  0  0  0  0  0  0  0  0  0  0
   -1.8008    0.7183    1.8271 H   0  0  0  0  0  0  0  0  0  0  0  0
    0.1073    1.8727   -0.2913 H   0  0  0  0  0  0  0  0  0  0  0  0
   -0.8529    0.9940   -2.2149 H   0  0  0  0  0  0  0  0  0  0  0  0
   -2.2169   -0.0460   -2.6582 H   0  0  0  0  0  0  0  0  0  0  0  0
    3.4200    1.5181    1.7045 H   0  0  0  0  0  0  0  0  0  0  0  0
    2.8191    1.9263    0.0867 H   0  0  0  0  0  0  0  0  0  0  0  0
   -4.3825   -2.6646   -1.2079 H   0  0  0  0  0  0  0  0  0  0  0  0
   -2.9724   -2.2227   -2.2017 H   0  0  0  0  0  0  0  0  0  0  0  0
   -4.1318   -0.9589   -1.6596 H   0  0  0  0  0  0  0  0  0  0  0  0
   -3.0136   -3.7938    0.5345 H   0  0  0  0  0  0  0  0  0  0  0  0
   -1.5457   -3.4661   -0.4293 H   0  0  0  0  0  0  0  0  0  0  0  0
   -1.6175   -2.9811    1.2917 H   0  0  0  0  0  0  0  0  0  0  0  0
   -4.5646   -1.9224    1.2034 H   0  0  0  0  0  0  0  0  0  0  0  0
   -4.2011   -0.2205    0.8038 H   0  0  0  0  0  0  0  0  0  0  0  0
   -3.2218   -1.0951    2.0248 H   0  0  0  0  0  0  0  0  0  0  0  0
   -0.8942   -1.0272    2.7732 H   0  0  0  0  0  0  0  0  0  0  0  0
    0.3618   -2.1866    2.2395 H   0  0  0  0  0  0  0  0  0  0  0  0
    0.1318   -1.8413    3.9781 H   0  0  0  0  0  0  0  0  0  0  0  0
    1.5820    1.6319    3.9919 H   0  0  0  0  0  0  0  0  0  0  0  0
   -0.1517    1.2760    3.7924 H   0  0  0  0  0  0  0  0  0  0  0  0
    0.8197    0.3440    4.9668 H   0  0  0  0  0  0  0  0  0  0  0  0
    2.5617   -1.3618    4.1728 H   0  0  0  0  0  0  0  0  0  0  0  0
    3.3633   -0.0927    3.2134 H   0  0  0  0  0  0  0  0  0  0  0  0
    2.8414   -1.6121    2.4257 H   0  0  0  0  0  0  0  0  0  0  0  0
   -3.4712    2.7924    1.8593 H   0  0  0  0  0  0  0  0  0  0  0  0
   -1.5641    3.8837    1.9322 H   0  0  0  0  0  0  0  0  0  0  0  0
   -3.8212    2.0903   -3.0857 H   0  0  0  0  0  0  0  0  0  0  0  0
    3.4078    4.0842    2.4834 H   0  0  0  0  0  0  0  0  0  0  0  0
   -5.2120    3.9990    0.5432 H   0  0  0  0  0  0  0  0  0  0  0  0
   -0.5161    5.7947    3.1333 H   0  0  0  0  0  0  0  0  0  0  0  0
   -5.3759    3.6668   -1.9264 H   0  0  0  0  0  0  0  0  0  0  0  0
    1.9638    5.9066    3.4031 H   0  0  0  0  0  0  0  0  0  0  0  0
  1  8  1  0
  2  1  1  0
  2  3  1  0
  2  5  1  0
  3 24  1  0
  3  9  1  0
  2  4  1  6
  6 39  1  0
  6 35  1  0
  7 34  1  0
  7 32  1  0
 10 11  2  0
 10 15  1  0
 11 12  1  0
 12 18  1  0
 12 13  2  0
 13  1  1  0
 14 13  1  0
 14 19  1  0
 15 14  2  0
 16 10  1  0
 17 11  1  0
 20 15  1  0
 21 27  1  0
 21 22  1  0
 22 28  1  0
 23 22  2  0
 23 29  1  0
 24 23  1  0
 25 26  1  0
 25 24  2  0
 26 21  2  0
 30 25  1  0
 31 26  1  0
 32 56  1  1
 33 57  1  6
 33 32  1  0
 33  6  1  0
 33 37  1  0
 34 43  1  1
 34 44  1  0
 35 45  1  6
 35 47  1  0
 35 46  1  0
 36 48  1  0
 36 32  1  0
 37 41  2  0
 37 49  1  0
 38 40  1  0
 38  7  1  0
 39 41  1  0
 39 60  1  0
 40 36  2  0
 41 51  1  0
 42 62  1  0
 42 34  1  0
 43 65  1  0
 43 67  1  0
 44 68  1  0
 44 70  1  0
 45 73  1  0
 46 74  1  0
 46 76  1  0
 47 78  1  0
 47 77  1  0
 48 80  1  0
 49 53  2  0
 50 54  2  0
 50 40  1  0
 51 83  1  0
 51 55  2  0
 52 84  1  0
 52 48  2  0
 53 55  1  0
 53 85  1  0
 54 52  1  0
 55 87  1  0
 58 38  1  0
 59 38  1  0
 61 39  1  0
 63 42  1  0
 64 42  1  0
 66 43  1  0
 69 44  1  0
 71 45  1  0
 72 45  1  0
 75 46  1  0
 79 47  1  0
 81 49  1  0
 82 50  1  0
 86 54  1  0
M  END
>  <Energy>  (1) 
-2324.731671

$$$$
34_cs_CONF_0002.xyz
     RDKit          3D

 87 91  0  0  1  0  0  0  0  0999 V2000
    0.8552   -2.7545   -2.2291 C   0  0  0  0  0  3  0  0  0  0  0  0
    2.0478   -1.9784   -2.1888 C   0  0  1  0  0  0  0  0  0  0  0  0
    2.8354   -1.9197   -1.0044 C   0  0  0  0  0  3  0  0  0  0  0  0
    2.2553   -1.2818   -3.0108 H   0  0  0  0  0  0  0  0  0  0  0  0
    0.7797   -1.2196   -0.5741 Pd  0  0  0  0  0  1  0  0  0  0  0  0
    1.2015    0.3937    1.0225 P   0  0  0  0  0  0  0  0  0  0  0  0
   -1.4633   -0.5933   -0.3340 P   0  0  0  0  0  0  0  0  0  0  0  0
    0.8160   -3.6473   -1.5858 H   0  0  0  0  0  0  0  0  0  0  0  0
    2.7902   -2.7913   -0.3330 H   0  0  0  0  0  0  0  0  0  0  0  0
   -1.9763   -2.7624   -5.4750 C   0  0  0  0  0  0  0  0  0  0  0  0
   -1.2082   -1.6130   -5.2216 C   0  0  0  0  0  0  0  0  0  0  0  0
   -0.2810   -1.6021   -4.1746 C   0  0  0  0  0  0  0  0  0  0  0  0
   -0.0987   -2.7416   -3.3566 C   0  0  0  0  0  0  0  0  0  0  0  0
   -0.8733   -3.8914   -3.6277 C   0  0  0  0  0  0  0  0  0  0  0  0
   -1.8023   -3.9022   -4.6757 C   0  0  0  0  0  0  0  0  0  0  0  0
   -2.7031   -2.7691   -6.2936 H   0  0  0  0  0  0  0  0  0  0  0  0
   -1.3367   -0.7203   -5.8429 H   0  0  0  0  0  0  0  0  0  0  0  0
    0.2943   -0.6910   -3.9745 H   0  0  0  0  0  0  0  0  0  0  0  0
   -0.7406   -4.7868   -3.0101 H   0  0  0  0  0  0  0  0  0  0  0  0
   -2.3899   -4.8051   -4.8714 H   0  0  0  0  0  0  0  0  0  0  0  0
    6.1242    0.7365   -0.1715 C   0  0  0  0  0  0  0  0  0  0  0  0
    5.8536   -0.3590    0.6636 C   0  0  0  0  0  0  0  0  0  0  0  0
    4.7976   -1.2279    0.3618 C   0  0  0  0  0  0  0  0  0  0  0  0
    3.9828   -1.0170   -0.7740 C   0  0  0  0  0  0  0  0  0  0  0  0
    4.2739    0.0849   -1.6110 C   0  0  0  0  0  0  0  0  0  0  0  0
    5.3344    0.9480   -1.3142 C   0  0  0  0  0  0  0  0  0  0  0  0
    6.9517    1.4150    0.0592 H   0  0  0  0  0  0  0  0  0  0  0  0
    6.4728   -0.5423    1.5479 H   0  0  0  0  0  0  0  0  0  0  0  0
    4.5971   -2.0853    1.0146 H   0  0  0  0  0  0  0  0  0  0  0  0
    3.6609    0.2795   -2.4973 H   0  0  0  0  0  0  0  0  0  0  0  0
    5.5457    1.7939   -1.9765 H   0  0  0  0  0  0  0  0  0  0  0  0
   -1.6259    0.9280    0.8114 C   0  0  1  0  0  0  0  0  0  0  0  0
   -0.2305    1.5977    0.7732 C   0  0  1  0  0  0  0  0  0  0  0  0
   -2.7892   -1.8405    0.1757 C   0  0  1  0  0  0  0  0  0  0  0  0
    1.3684   -0.1987    2.8456 C   0  0  2  0  0  0  0  0  0  0  0  0
   -2.7419    1.7301    0.1522 C   0  0  0  0  0  0  0  0  0  0  0  0
    0.2232    2.8174    1.5634 C   0  0  0  0  0  0  0  0  0  0  0  0
   -2.1212    0.3429   -1.8074 C   0  0  0  0  0  0  0  0  0  0  0  0
    2.3756    1.8260    0.8231 C   0  0  0  0  0  0  0  0  0  0  0  0
   -2.9589    1.4611   -1.2183 C   0  0  0  0  0  0  0  0  0  0  0  0
    1.6392    2.9383    1.5574 C   0  0  0  0  0  0  0  0  0  0  0  0
   -2.7861   -2.9520   -0.8950 C   0  0  0  0  0  0  0  0  0  0  0  0
   -2.3569   -2.4326    1.5339 C   0  0  0  0  0  0  0  0  0  0  0  0
   -4.1883   -1.2015    0.2883 C   0  0  0  0  0  0  0  0  0  0  0  0
    2.6673    0.3568    3.4696 C   0  0  0  0  0  0  0  0  0  0  0  0
    1.4558   -1.7415    2.7921 C   0  0  0  0  0  0  0  0  0  0  0  0
    0.1576    0.2253    3.7018 C   0  0  0  0  0  0  0  0  0  0  0  0
   -3.5735    2.6453    0.8183 C   0  0  0  0  0  0  0  0  0  0  0  0
   -0.5520    3.7721    2.2323 C   0  0  0  0  0  0  0  0  0  0  0  0
   -3.9548    2.1536   -1.9245 C   0  0  0  0  0  0  0  0  0  0  0  0
    2.2593    4.0043    2.2211 C   0  0  0  0  0  0  0  0  0  0  0  0
   -4.5733    3.3297    0.1119 C   0  0  0  0  0  0  0  0  0  0  0  0
    0.0776    4.8353    2.9029 C   0  0  0  0  0  0  0  0  0  0  0  0
   -4.7531    3.0965   -1.2604 C   0  0  0  0  0  0  0  0  0  0  0  0
    1.4741    4.9535    2.8971 C   0  0  0  0  0  0  0  0  0  0  0  0
   -1.8952    0.6258    1.8361 H   0  0  0  0  0  0  0  0  0  0  0  0
   -0.0596    1.8509   -0.2987 H   0  0  0  0  0  0  0  0  0  0  0  0
   -1.2572    0.7143   -2.3893 H   0  0  0  0  0  0  0  0  0  0  0  0
   -2.6876   -0.3241   -2.4794 H   0  0  0  0  0  0  0  0  0  0  0  0
    3.3937    1.6287    1.1882 H   0  0  0  0  0  0  0  0  0  0  0  0
    2.4486    2.0213   -0.2643 H   0  0  0  0  0  0  0  0  0  0  0  0
   -3.5381   -3.7159   -0.6270 H   0  0  0  0  0  0  0  0  0  0  0  0
   -1.8023   -3.4460   -0.9546 H   0  0  0  0  0  0  0  0  0  0  0  0
   -3.0374   -2.5720   -1.9000 H   0  0  0  0  0  0  0  0  0  0  0  0
   -3.0794   -3.2101    1.8402 H   0  0  0  0  0  0  0  0  0  0  0  0
   -1.3603   -2.9039    1.4684 H   0  0  0  0  0  0  0  0  0  0  0  0
   -2.3335   -1.6700    2.3318 H   0  0  0  0  0  0  0  0  0  0  0  0
   -4.9113   -1.9869    0.5761 H   0  0  0  0  0  0  0  0  0  0  0  0
   -4.5261   -0.7667   -0.6669 H   0  0  0  0  0  0  0  0  0  0  0  0
   -4.2248   -0.4105    1.0553 H   0  0  0  0  0  0  0  0  0  0  0  0
    3.5591    0.0789    2.8819 H   0  0  0  0  0  0  0  0  0  0  0  0
    2.6363    1.4531    3.5786 H   0  0  0  0  0  0  0  0  0  0  0  0
    2.7832   -0.0791    4.4785 H   0  0  0  0  0  0  0  0  0  0  0  0
    0.5534   -2.1859    2.3385 H   0  0  0  0  0  0  0  0  0  0  0  0
    2.3334   -2.0764    2.2130 H   0  0  0  0  0  0  0  0  0  0  0  0
    1.5525   -2.1389    3.8188 H   0  0  0  0  0  0  0  0  0  0  0  0
    0.3167   -0.1267    4.7374 H   0  0  0  0  0  0  0  0  0  0  0  0
   -0.7785   -0.2345    3.3439 H   0  0  0  0  0  0  0  0  0  0  0  0
    0.0316    1.3198    3.7293 H   0  0  0  0  0  0  0  0  0  0  0  0
   -3.4621    2.8077    1.8955 H   0  0  0  0  0  0  0  0  0  0  0  0
   -1.6404    3.6976    2.2368 H   0  0  0  0  0  0  0  0  0  0  0  0
   -4.1234    1.9394   -2.9854 H   0  0  0  0  0  0  0  0  0  0  0  0
    3.3515    4.0883    2.2222 H   0  0  0  0  0  0  0  0  0  0  0  0
   -5.2214    4.0387    0.6369 H   0  0  0  0  0  0  0  0  0  0  0  0
   -0.5311    5.5739    3.4343 H   0  0  0  0  0  0  0  0  0  0  0  0
   -5.5355    3.6310   -1.8087 H   0  0  0  0  0  0  0  0  0  0  0  0
    1.9564    5.7821    3.4253 H   0  0  0  0  0  0  0  0  0  0  0  0
  1  2  1  0
  1  8  1  0
  2  3  1  0
  2  5  1  0
  3 24  1  0
  3  9  1  0
  2  4  1  6
  6 35  1  0
  7 34  1  0
  7 32  1  0
 10 11  2  0
 10 15  1  0
 11 12  1  0
 12 18  1  0
 12 13  2  0
 13  1  1  0
 14 13  1  0
 14 19  1  0
 15 14  2  0
 16 10  1  0
 17 11  1  0
 20 15  1  0
 21 27  1  0
 21 22  1  0
 22 28  1  0
 23 22  2  0
 23 29  1  0
 24 23  1  0
 25 26  1  0
 25 24  2  0
 26 21  2  0
 30 25  1  0
 31 26  1  0
 32 56  1  1
 33 57  1  6
 33 32  1  0
 33  6  1  0
 33 37  1  0
 34 44  1  1
 34 43  1  0
 35 45  1  1
 35 47  1  0
 36 32  1  0
 36 48  1  0
 37 49  1  0
 38 40  1  0
 38  7  1  0
 39  6  1  0
 39 60  1  0
 39 41  1  0
 40 36  2  0
 41 37  2  0
 41 51  1  0
 42 62  1  0
 42 34  1  0
 43 65  1  0
 43 67  1  0
 44 68  1  0
 44 70  1  0
 45 72  1  0
 45 73  1  0
 46 35  1  0
 46 76  1  0
 47 79  1  0
 47 77  1  0
 48 80  1  0
 49 81  1  0
 49 53  2  0
 50 54  2  0
 50 40  1  0
 51 83  1  0
 51 55  2  0
 52 84  1  0
 52 48  2  0
 53 85  1  0
 54 52  1  0
 55 53  1  0
 55 87  1  0
 58 38  1  0
 59 38  1  0
 61 39  1  0
 63 42  1  0
 64 42  1  0
 66 43  1  0
 69 44  1  0
 71 45  1  0
 74 46  1  0
 75 46  1  0
 78 47  1  0
 82 50  1  0
 86 54  1  0
M  END
>  <Energy>  (2) 
-2324.730209

$$$$
