36_cs_CONF_0003.xyz
     RDKit          3D

 81 85  0  0  0  0  0  0  0  0999 V2000
    2.7479    0.7898   -0.2451 C   0  0  0  0  0  3  0  0  0  0  0  0
    1.9894    1.9574    0.0579 C   0  0  0  0  0  0  0  0  0  0  0  0
    1.3203    2.0663    1.3055 C   0  0  0  0  0  3  0  0  0  0  0  0
    1.8020    2.6917   -0.7354 H   0  0  0  0  0  0  0  0  0  0  0  0
    0.6134    0.2548    0.1935 Pd  0  0  0  0  0  1  0  0  0  0  0  0
   -1.6285    0.1618    0.8124 P   0  0  0  0  0  0  0  0  0  0  0  0
    0.1352   -1.6076   -1.1028 P   0  0  0  0  0  0  0  0  0  0  0  0
    3.1872    0.2428    0.6035 H   0  0  0  0  0  0  0  0  0  0  0  0
    1.7204    1.4647    2.1349 H   0  0  0  0  0  0  0  0  0  0  0  0
    4.7334    0.2056   -4.0127 C   0  0  0  0  0  0  0  0  0  0  0  0
    5.3264   -0.2321   -2.8188 C   0  0  0  0  0  0  0  0  0  0  0  0
    4.6552   -0.0703   -1.6002 C   0  0  0  0  0  0  0  0  0  0  0  0
    3.3913    0.5602   -1.5514 C   0  0  0  0  0  0  0  0  0  0  0  0
    2.7973    0.9828   -2.7646 C   0  0  0  0  0  0  0  0  0  0  0  0
    3.4624    0.8063   -3.9818 C   0  0  0  0  0  0  0  0  0  0  0  0
    5.2504    0.0645   -4.9672 H   0  0  0  0  0  0  0  0  0  0  0  0
    6.3091   -0.7125   -2.8379 H   0  0  0  0  0  0  0  0  0  0  0  0
    5.1192   -0.4195   -0.6717 H   0  0  0  0  0  0  0  0  0  0  0  0
    1.7973    1.4324   -2.7514 H   0  0  0  0  0  0  0  0  0  0  0  0
    2.9872    1.1299   -4.9138 H   0  0  0  0  0  0  0  0  0  0  0  0
   -1.2120    5.2850    2.6216 C   0  0  0  0  0  0  0  0  0  0  0  0
   -0.8125    4.2749    3.5096 C   0  0  0  0  0  0  0  0  0  0  0  0
    0.0016    3.2284    3.0609 C   0  0  0  0  0  0  0  0  0  0  0  0
    0.4308    3.1669    1.7140 C   0  0  0  0  0  0  0  0  0  0  0  0
   -0.0006    4.1788    0.8236 C   0  0  0  0  0  0  0  0  0  0  0  0
   -0.8057    5.2290    1.2772 C   0  0  0  0  0  0  0  0  0  0  0  0
   -1.8474    6.1052    2.9694 H   0  0  0  0  0  0  0  0  0  0  0  0
   -1.1326    4.3052    4.5557 H   0  0  0  0  0  0  0  0  0  0  0  0
    0.3184    2.4460    3.7582 H   0  0  0  0  0  0  0  0  0  0  0  0
    0.3013    4.1553   -0.2285 H   0  0  0  0  0  0  0  0  0  0  0  0
   -1.1239    6.0096    0.5780 H   0  0  0  0  0  0  0  0  0  0  0  0
    2.8555   -2.6471   -1.0790 F   0  0  0  0  0  0  0  0  0  0  0  0
   -0.8253   -4.3208   -2.1091 F   0  0  0  0  0  0  0  0  0  0  0  0
   -4.3244   -0.7869    1.8665 F   0  0  0  0  0  0  0  0  0  0  0  0
   -1.8615    1.6998   -1.6647 F   0  0  0  0  0  0  0  0  0  0  0  0
   -0.4752   -1.3211   -4.2137 F   0  0  0  0  0  0  0  0  0  0  0  0
    1.0143   -2.2719    1.7834 F   0  0  0  0  0  0  0  0  0  0  0  0
    0.1641   -0.0849    3.3008 F   0  0  0  0  0  0  0  0  0  0  0  0
   -3.1907    2.0392    2.9042 F   0  0  0  0  0  0  0  0  0  0  0  0
    1.2491   -1.8003   -6.2329 F   0  0  0  0  0  0  0  0  0  0  0  0
    0.8663   -4.6271    3.0832 F   0  0  0  0  0  0  0  0  0  0  0  0
   -0.4598   -1.0810    5.7196 F   0  0  0  0  0  0  0  0  0  0  0  0
   -4.3081    4.4114    2.3873 F   0  0  0  0  0  0  0  0  0  0  0  0
    4.5643   -3.1707   -3.1333 F   0  0  0  0  0  0  0  0  0  0  0  0
   -0.9391   -6.6904   -0.7868 F   0  0  0  0  0  0  0  0  0  0  0  0
   -4.9323   -1.7993    4.3165 F   0  0  0  0  0  0  0  0  0  0  0  0
   -3.0230    4.0990   -2.1637 F   0  0  0  0  0  0  0  0  0  0  0  0
    3.7774   -2.6995   -5.7080 F   0  0  0  0  0  0  0  0  0  0  0  0
   -0.0966   -6.8478    1.8083 F   0  0  0  0  0  0  0  0  0  0  0  0
   -3.0035   -1.9355    6.2484 F   0  0  0  0  0  0  0  0  0  0  0  0
   -4.2541    5.4685   -0.1299 F   0  0  0  0  0  0  0  0  0  0  0  0
   -1.6415   -1.3566   -1.6070 C   0  0  0  0  0  0  0  0  0  0  0  0
   -2.4748   -1.0667   -0.3475 C   0  0  0  0  0  0  0  0  0  0  0  0
    1.1285   -2.0077   -2.5792 C   0  0  0  0  0  0  0  0  0  0  0  0
    0.0769   -3.2123   -0.2048 C   0  0  0  0  0  0  0  0  0  0  0  0
   -2.0515   -0.4635    2.4784 C   0  0  0  0  0  0  0  0  0  0  0  0
   -2.5404    1.7425    0.6141 C   0  0  0  0  0  0  0  0  0  0  0  0
    2.4398   -2.4669   -2.3464 C   0  0  0  0  0  0  0  0  0  0  0  0
   -0.4075   -4.3765   -0.8340 C   0  0  0  0  0  0  0  0  0  0  0  0
   -3.3575   -0.8867    2.7930 C   0  0  0  0  0  0  0  0  0  0  0  0
   -2.5118    2.3336   -0.6630 C   0  0  0  0  0  0  0  0  0  0  0  0
    0.7493   -1.7846   -3.9143 C   0  0  0  0  0  0  0  0  0  0  0  0
    0.5171   -3.3330    1.1251 C   0  0  0  0  0  0  0  0  0  0  0  0
   -1.0902   -0.5198    3.5035 C   0  0  0  0  0  0  0  0  0  0  0  0
   -3.1614    2.4804    1.6392 C   0  0  0  0  0  0  0  0  0  0  0  0
    1.6279   -2.0328   -4.9770 C   0  0  0  0  0  0  0  0  0  0  0  0
    0.4557   -4.5489    1.8185 C   0  0  0  0  0  0  0  0  0  0  0  0
   -1.3943   -1.0291    4.7729 C   0  0  0  0  0  0  0  0  0  0  0  0
   -3.7567    3.7247    1.3885 C   0  0  0  0  0  0  0  0  0  0  0  0
    3.3303   -2.7391   -3.3870 C   0  0  0  0  0  0  0  0  0  0  0  0
   -0.4731   -5.6078   -0.1702 C   0  0  0  0  0  0  0  0  0  0  0  0
   -3.6917   -1.3996    4.0502 C   0  0  0  0  0  0  0  0  0  0  0  0
   -3.0961    3.5710   -0.9427 C   0  0  0  0  0  0  0  0  0  0  0  0
    2.9251   -2.4976   -4.7094 C   0  0  0  0  0  0  0  0  0  0  0  0
   -0.0369   -5.6902    1.1644 C   0  0  0  0  0  0  0  0  0  0  0  0
   -2.7019   -1.4610    5.0478 C   0  0  0  0  0  0  0  0  0  0  0  0
   -3.7280    4.2705    0.0977 C   0  0  0  0  0  0  0  0  0  0  0  0
   -1.6577   -0.5047   -2.3012 H   0  0  0  0  0  0  0  0  0  0  0  0
   -2.0219   -2.2432   -2.1379 H   0  0  0  0  0  0  0  0  0  0  0  0
   -3.4777   -0.6955   -0.6107 H   0  0  0  0  0  0  0  0  0  0  0  0
   -2.6092   -1.9859    0.2490 H   0  0  0  0  0  0  0  0  0  0  0  0
  1  2  1  0
  1  8  1  0
  2  5  1  0
  2  3  1  0
  3 24  1  0
  3  9  1  0
  4  2  1  0
  6 56  1  0
  7 55  1  0
 10 15  2  0
 10 11  1  0
 11 12  2  0
 12 13  1  0
 12 18  1  0
 13  1  1  0
 14 19  1  0
 14 13  2  0
 15 14  1  0
 16 10  1  0
 17 11  1  0
 20 15  1  0
 21 27  1  0
 21 22  1  0
 22 28  1  0
 23 22  2  0
 23 29  1  0
 24 23  1  0
 25 26  1  0
 25 24  2  0
 26 21  2  0
 30 25  1  0
 31 26  1  0
 33 59  1  0
 34 60  1  0
 35 61  1  0
 36 62  1  0
 38 64  1  0
 40 66  1  0
 45 71  1  0
 47 73  1  0
 48 74  1  0
 51 77  1  0
 52  7  1  0
 52 53  1  0
 53 81  1  0
 53  6  1  0
 54 58  1  0
 54  7  1  0
 55 63  1  0
 56 60  2  0
 56 64  1  0
 57  6  1  0
 57 65  1  0
 58 32  1  0
 59 55  2  0
 59 71  1  0
 60 72  1  0
 61 57  2  0
 62 54  2  0
 63 37  1  0
 63 67  2  0
 64 68  2  0
 65 39  1  0
 66 74  2  0
 66 62  1  0
 67 41  1  0
 68 76  1  0
 68 42  1  0
 69 65  2  0
 69 43  1  0
 70 44  1  0
 70 58  2  0
 71 75  2  0
 72 46  1  0
 72 76  2  0
 73 61  1  0
 73 77  2  0
 74 70  1  0
 75 49  1  0
 75 67  1  0
 76 50  1  0
 77 69  1  0
 78 52  1  0
 79 52  1  0
 80 53  1  0
M  END
>  <Energy>  (1) 
-4381.783586

$$$$
