39_cs_CONF_0001.xyz
     RDKit          3D

 83 87  0  0  1  0  0  0  0  0999 V2000
    0.7269    0.3683   -2.7489 C   0  0  0  0  0  3  0  0  0  0  0  0
    1.9019    0.7414   -2.0234 C   0  0  1  0  0  0  0  0  0  0  0  0
    2.6508   -0.2187   -1.3105 C   0  0  0  0  0  3  0  0  0  0  0  0
    2.1436    1.8059   -1.9126 H   0  0  0  0  0  0  0  0  0  0  0  0
    0.4544   -0.1223   -0.5925 Pd  0  0  0  0  0  1  0  0  0  0  0  0
    0.5144   -0.4533    1.7154 P   0  0  0  0  0  0  0  0  0  0  0  0
   -1.8399   -0.4680   -0.4791 P   0  0  0  0  0  0  0  0  0  0  0  0
    0.7154   -0.6412   -3.1842 H   0  0  0  0  0  0  0  0  0  0  0  0
    2.4742   -1.2761   -1.5647 H   0  0  0  0  0  0  0  0  0  0  0  0
   -1.7771    3.2437   -4.7556 C   0  0  0  0  0  0  0  0  0  0  0  0
   -1.0928    3.6090   -3.5850 C   0  0  0  0  0  0  0  0  0  0  0  0
   -0.2930    2.6764   -2.9161 C   0  0  0  0  0  0  0  0  0  0  0  0
   -0.1436    1.3602   -3.4137 C   0  0  0  0  0  0  0  0  0  0  0  0
   -0.8428    1.0049   -4.5898 C   0  0  0  0  0  0  0  0  0  0  0  0
   -1.6532    1.9361   -5.2521 C   0  0  0  0  0  0  0  0  0  0  0  0
   -2.4054    3.9730   -5.2768 H   0  0  0  0  0  0  0  0  0  0  0  0
   -1.1970    4.6214   -3.1819 H   0  0  0  0  0  0  0  0  0  0  0  0
    0.2017    2.9651   -1.9820 H   0  0  0  0  0  0  0  0  0  0  0  0
   -0.7348   -0.0066   -4.9959 H   0  0  0  0  0  0  0  0  0  0  0  0
   -2.1805    1.6438   -6.1660 H   0  0  0  0  0  0  0  0  0  0  0  0
    6.2458    0.3719    0.9682 C   0  0  0  0  0  0  0  0  0  0  0  0
    5.6163    1.4788    0.3737 C   0  0  0  0  0  0  0  0  0  0  0  0
    4.4483    1.3086   -0.3753 C   0  0  0  0  0  0  0  0  0  0  0  0
    3.8804    0.0236   -0.5434 C   0  0  0  0  0  0  0  0  0  0  0  0
    4.5410   -1.0843    0.0373 C   0  0  0  0  0  0  0  0  0  0  0  0
    5.7079   -0.9124    0.7905 C   0  0  0  0  0  0  0  0  0  0  0  0
    7.1607    0.5095    1.5535 H   0  0  0  0  0  0  0  0  0  0  0  0
    6.0432    2.4798    0.4922 H   0  0  0  0  0  0  0  0  0  0  0  0
    3.9774    2.1840   -0.8337 H   0  0  0  0  0  0  0  0  0  0  0  0
    4.1266   -2.0886   -0.1055 H   0  0  0  0  0  0  0  0  0  0  0  0
    6.2049   -1.7823    1.2324 H   0  0  0  0  0  0  0  0  0  0  0  0
   -1.1664   -2.4242    2.4325 O   0  0  0  0  0  0  0  0  0  0  0  0
   -2.9117    0.6250    1.7389 O   0  0  0  0  0  0  0  0  0  0  0  0
   -1.2167   -0.9909    2.2989 C   0  0  2  0  0  0  0  0  0  0  0  0
   -2.3552   -0.6424    1.3468 C   0  0  2  0  0  0  0  0  0  0  0  0
    1.0063    1.0116    2.8100 C   0  0  1  0  0  0  0  0  0  0  0  0
   -2.5965   -1.9599   -1.3715 C   0  0  2  0  0  0  0  0  0  0  0  0
    1.1794   -2.0045    2.3787 C   0  0  0  0  0  0  0  0  0  0  0  0
   -2.9187    0.9769   -0.6210 C   0  0  0  0  0  0  0  0  0  0  0  0
    0.1101   -2.8897    2.6377 C   0  0  0  0  0  0  0  0  0  0  0  0
   -3.3255    1.3819    0.6699 C   0  0  0  0  0  0  0  0  0  0  0  0
    2.4161    1.4468    2.3631 C   0  0  0  0  0  0  0  0  0  0  0  0
   -1.8679   -3.2085   -0.8293 C   0  0  0  0  0  0  0  0  0  0  0  0
   -2.3230   -1.7918   -2.8793 C   0  0  0  0  0  0  0  0  0  0  0  0
   -4.1136   -2.0307   -1.1121 C   0  0  0  0  0  0  0  0  0  0  0  0
   -0.0098    2.1379    2.5189 C   0  0  0  0  0  0  0  0  0  0  0  0
    0.9998    0.6138    4.2968 C   0  0  0  0  0  0  0  0  0  0  0  0
    2.5035   -2.4418    2.5603 C   0  0  0  0  0  0  0  0  0  0  0  0
   -3.2898    1.7407   -1.7417 C   0  0  0  0  0  0  0  0  0  0  0  0
    0.3347   -4.2014    3.0703 C   0  0  0  0  0  0  0  0  0  0  0  0
   -4.1065    2.5265    0.8631 C   0  0  0  0  0  0  0  0  0  0  0  0
   -4.0802    2.8830   -1.5588 C   0  0  0  0  0  0  0  0  0  0  0  0
    2.7394   -3.7504    3.0037 C   0  0  0  0  0  0  0  0  0  0  0  0
   -4.4783    3.2703   -0.2664 C   0  0  0  0  0  0  0  0  0  0  0  0
    1.6610   -4.6208    3.2474 C   0  0  0  0  0  0  0  0  0  0  0  0
   -1.4366   -0.5465    3.2885 H   0  0  0  0  0  0  0  0  0  0  0  0
   -3.1368   -1.4193    1.4431 H   0  0  0  0  0  0  0  0  0  0  0  0
    2.7422    2.3086    2.9730 H   0  0  0  0  0  0  0  0  0  0  0  0
   -1.0309    1.8713    2.8389 H   0  0  0  0  0  0  0  0  0  0  0  0
   -0.0410    2.3812    1.4406 H   0  0  0  0  0  0  0  0  0  0  0  0
    0.2944    3.0487    3.0655 H   0  0  0  0  0  0  0  0  0  0  0  0
    0.0008    0.2962    4.6419 H   0  0  0  0  0  0  0  0  0  0  0  0
    1.7136   -0.2011    4.5036 H   0  0  0  0  0  0  0  0  0  0  0  0
    1.2939    1.4908    4.9018 H   0  0  0  0  0  0  0  0  0  0  0  0
   -4.6287   -1.1191   -1.4594 H   0  0  0  0  0  0  0  0  0  0  0  0
   -4.5283   -2.8926   -1.6659 H   0  0  0  0  0  0  0  0  0  0  0  0
    2.4166    1.7566    1.3052 H   0  0  0  0  0  0  0  0  0  0  0  0
    3.1661    0.6463    2.4845 H   0  0  0  0  0  0  0  0  0  0  0  0
   -2.2380   -4.1042   -1.3597 H   0  0  0  0  0  0  0  0  0  0  0  0
   -0.7771   -3.1392   -0.9956 H   0  0  0  0  0  0  0  0  0  0  0  0
   -2.0407   -3.3533    0.2507 H   0  0  0  0  0  0  0  0  0  0  0  0
   -2.7425   -2.6592   -3.4200 H   0  0  0  0  0  0  0  0  0  0  0  0
   -1.2416   -1.7527   -3.0881 H   0  0  0  0  0  0  0  0  0  0  0  0
   -2.7924   -0.8808   -3.2873 H   0  0  0  0  0  0  0  0  0  0  0  0
   -4.3522   -2.1820   -0.0457 H   0  0  0  0  0  0  0  0  0  0  0  0
   -2.9646    1.4519   -2.7449 H   0  0  0  0  0  0  0  0  0  0  0  0
    3.3400   -1.7661    2.3632 H   0  0  0  0  0  0  0  0  0  0  0  0
   -4.4169    2.8123    1.8718 H   0  0  0  0  0  0  0  0  0  0  0  0
   -0.5123   -4.8629    3.2711 H   0  0  0  0  0  0  0  0  0  0  0  0
   -4.3803    3.4765   -2.4274 H   0  0  0  0  0  0  0  0  0  0  0  0
    3.7659   -4.0945    3.1625 H   0  0  0  0  0  0  0  0  0  0  0  0
    1.8552   -5.6418    3.5913 H   0  0  0  0  0  0  0  0  0  0  0  0
   -5.0940    4.1659   -0.1342 H   0  0  0  0  0  0  0  0  0  0  0  0
  1  2  1  0
  2  4  1  6
  2  3  1  0
  2  5  1  0
  3 24  1  0
  6 34  1  0
  6 38  1  0
  6 36  1  0
  7 37  1  0
  7 35  1  0
  8  1  1  0
  9  3  1  0
 10 11  1  0
 11 17  1  0
 11 12  2  0
 12 18  1  0
 13 12  1  0
 13  1  1  0
 14 13  2  0
 15 10  2  0
 15 14  1  0
 16 10  1  0
 19 14  1  0
 20 15  1  0
 21 27  1  0
 22 28  1  0
 22 21  2  0
 23 22  1  0
 24 23  2  0
 24 25  1  0
 25 26  2  0
 26 21  1  0
 26 31  1  0
 29 23  1  0
 30 25  1  0
 32 40  1  0
 34 32  1  0
 34 56  1  1
 35 57  1  6
 35 33  1  0
 35 34  1  0
 36 47  1  1
 37 45  1  6
 37 43  1  0
 38 48  2  0
 38 40  1  0
 39  7  1  0
 39 41  1  0
 40 50  2  0
 41 51  2  0
 41 33  1  0
 42 68  1  0
 42 36  1  0
 42 58  1  0
 43 71  1  0
 44 37  1  0
 45 75  1  0
 46 36  1  0
 46 59  1  0
 46 61  1  0
 47 63  1  0
 47 62  1  0
 47 64  1  0
 48 53  1  0
 49 52  1  0
 49 39  2  0
 50 55  1  0
 50 79  1  0
 51 78  1  0
 52 54  2  0
 53 81  1  0
 53 55  2  0
 54 83  1  0
 54 51  1  0
 55 82  1  0
 60 46  1  0
 65 45  1  0
 66 45  1  0
 67 42  1  0
 69 43  1  0
 70 43  1  0
 72 44  1  0
 73 44  1  0
 74 44  1  0
 76 49  1  0
 77 48  1  0
 80 52  1  0
M  END
>  <Energy>  (1) 
-2396.58047

$$$$
39_cs_CONF_0002.xyz
     RDKit          3D

 83 87  0  0  1  0  0  0  0  0999 V2000
    0.6290    0.2803   -2.7758 C   0  0  0  0  0  3  0  0  0  0  0  0
    1.7827    0.7545   -2.0828 C   0  0  1  0  0  0  0  0  0  0  0  0
    2.6018   -0.1158   -1.3292 C   0  0  0  0  0  3  0  0  0  0  0  0
    1.9524    1.8365   -2.0208 H   0  0  0  0  0  0  0  0  0  0  0  0
    0.4378   -0.1552   -0.5857 Pd  0  0  0  0  0  1  0  0  0  0  0  0
    0.5995   -0.4989    1.7228 P   0  0  0  0  0  0  0  0  0  0  0  0
   -1.8526   -0.4762   -0.3802 P   0  0  0  0  0  0  0  0  0  0  0  0
    0.6592   -0.7544   -3.1472 H   0  0  0  0  0  0  0  0  0  0  0  0
    2.5396   -1.1906   -1.5615 H   0  0  0  0  0  0  0  0  0  0  0  0
   -2.0211    2.9115   -4.9247 C   0  0  0  0  0  0  0  0  0  0  0  0
   -1.8686    1.5729   -5.3206 C   0  0  0  0  0  0  0  0  0  0  0  0
   -1.0124    0.7218   -4.6104 C   0  0  0  0  0  0  0  0  0  0  0  0
   -0.2973    1.1880   -3.4835 C   0  0  0  0  0  0  0  0  0  0  0  0
   -0.4780    2.5337   -3.0851 C   0  0  0  0  0  0  0  0  0  0  0  0
   -1.3200    3.3876   -3.8051 C   0  0  0  0  0  0  0  0  0  0  0  0
   -2.6835    3.5790   -5.4852 H   0  0  0  0  0  0  0  0  0  0  0  0
   -2.4079    1.1941   -6.1949 H   0  0  0  0  0  0  0  0  0  0  0  0
   -0.8798   -0.3138   -4.9418 H   0  0  0  0  0  0  0  0  0  0  0  0
    0.0269    2.9107   -2.1890 H   0  0  0  0  0  0  0  0  0  0  0  0
   -1.4451    4.4251   -3.4796 H   0  0  0  0  0  0  0  0  0  0  0  0
    6.1279    0.9339    0.8984 C   0  0  0  0  0  0  0  0  0  0  0  0
    5.8079   -0.4095    0.6478 C   0  0  0  0  0  0  0  0  0  0  0  0
    4.6590   -0.7317   -0.0844 C   0  0  0  0  0  0  0  0  0  0  0  0
    3.8005    0.2809   -0.5728 C   0  0  0  0  0  0  0  0  0  0  0  0
    4.1416    1.6308   -0.3202 C   0  0  0  0  0  0  0  0  0  0  0  0
    5.2935    1.9513    0.4052 C   0  0  0  0  0  0  0  0  0  0  0  0
    7.0272    1.1887    1.4681 H   0  0  0  0  0  0  0  0  0  0  0  0
    6.4607   -1.2075    1.0165 H   0  0  0  0  0  0  0  0  0  0  0  0
    4.4178   -1.7810   -0.2881 H   0  0  0  0  0  0  0  0  0  0  0  0
    3.5014    2.4397   -0.6865 H   0  0  0  0  0  0  0  0  0  0  0  0
    5.5427    3.0011    0.5899 H   0  0  0  0  0  0  0  0  0  0  0  0
   -1.1549   -2.4023    2.4818 O   0  0  0  0  0  0  0  0  0  0  0  0
   -2.6036    0.8317    1.8296 O   0  0  0  0  0  0  0  0  0  0  0  0
   -1.1298   -0.9679    2.3736 C   0  0  2  0  0  0  0  0  0  0  0  0
   -2.2718   -0.5240    1.4738 C   0  0  2  0  0  0  0  0  0  0  0  0
    1.2567    0.9143    2.8178 C   0  0  1  0  0  0  0  0  0  0  0  0
   -2.7032   -1.9667   -1.1808 C   0  0  2  0  0  0  0  0  0  0  0  0
    1.2033   -2.1171    2.2794 C   0  0  0  0  0  0  0  0  0  0  0  0
   -2.8728    1.0133   -0.5327 C   0  0  0  0  0  0  0  0  0  0  0  0
    0.1011   -2.9491    2.5745 C   0  0  0  0  0  0  0  0  0  0  0  0
   -3.0997    1.5408    0.7585 C   0  0  0  0  0  0  0  0  0  0  0  0
    2.7828    0.7299    2.9487 C   0  0  0  0  0  0  0  0  0  0  0  0
   -2.0198   -3.2285   -0.6114 C   0  0  0  0  0  0  0  0  0  0  0  0
   -2.4646   -1.8737   -2.7014 C   0  0  0  0  0  0  0  0  0  0  0  0
   -4.2131   -1.9556   -0.8744 C   0  0  0  0  0  0  0  0  0  0  0  0
    0.9168    2.2208    2.0682 C   0  0  0  0  0  0  0  0  0  0  0  0
    0.6102    0.9050    4.2158 C   0  0  0  0  0  0  0  0  0  0  0  0
    2.5033   -2.6561    2.2987 C   0  0  0  0  0  0  0  0  0  0  0  0
   -3.3316    1.7128   -1.6616 C   0  0  0  0  0  0  0  0  0  0  0  0
    0.2704   -4.2958    2.9169 C   0  0  0  0  0  0  0  0  0  0  0  0
   -3.7829    2.7457    0.9468 C   0  0  0  0  0  0  0  0  0  0  0  0
   -4.0298    2.9154   -1.4828 C   0  0  0  0  0  0  0  0  0  0  0  0
    2.6846   -4.0011    2.6468 C   0  0  0  0  0  0  0  0  0  0  0  0
   -4.2451    3.4259   -0.1906 C   0  0  0  0  0  0  0  0  0  0  0  0
    1.5739   -4.8101    2.9512 C   0  0  0  0  0  0  0  0  0  0  0  0
   -1.2882   -0.5380    3.3776 H   0  0  0  0  0  0  0  0  0  0  0  0
   -3.1504   -1.1732    1.6517 H   0  0  0  0  0  0  0  0  0  0  0  0
    3.2102    1.6295    3.4267 H   0  0  0  0  0  0  0  0  0  0  0  0
   -0.1715    2.3231    1.9095 H   0  0  0  0  0  0  0  0  0  0  0  0
    1.4194    2.2596    1.0856 H   0  0  0  0  0  0  0  0  0  0  0  0
    1.2594    3.0852    2.6651 H   0  0  0  0  0  0  0  0  0  0  0  0
   -0.4589    1.1751    4.1815 H   0  0  0  0  0  0  0  0  0  0  0  0
    0.7224   -0.0733    4.7160 H   0  0  0  0  0  0  0  0  0  0  0  0
    1.1201    1.6599    4.8415 H   0  0  0  0  0  0  0  0  0  0  0  0
   -4.6987   -1.0385   -1.2483 H   0  0  0  0  0  0  0  0  0  0  0  0
   -4.6828   -2.8222   -1.3742 H   0  0  0  0  0  0  0  0  0  0  0  0
    3.2743    0.6082    1.9707 H   0  0  0  0  0  0  0  0  0  0  0  0
    3.0282   -0.1386    3.5819 H   0  0  0  0  0  0  0  0  0  0  0  0
   -2.4315   -4.1211   -1.1159 H   0  0  0  0  0  0  0  0  0  0  0  0
   -0.9286   -3.2097   -0.7880 H   0  0  0  0  0  0  0  0  0  0  0  0
   -2.1898   -3.3356    0.4726 H   0  0  0  0  0  0  0  0  0  0  0  0
   -2.9350   -2.7445   -3.1925 H   0  0  0  0  0  0  0  0  0  0  0  0
   -1.3880   -1.8906   -2.9385 H   0  0  0  0  0  0  0  0  0  0  0  0
   -2.9045   -0.9618   -3.1380 H   0  0  0  0  0  0  0  0  0  0  0  0
   -4.4225   -2.0464    0.2050 H   0  0  0  0  0  0  0  0  0  0  0  0
   -3.1448    1.3312   -2.6693 H   0  0  0  0  0  0  0  0  0  0  0  0
    3.3630   -2.0295    2.0462 H   0  0  0  0  0  0  0  0  0  0  0  0
   -3.9540    3.1255    1.9576 H   0  0  0  0  0  0  0  0  0  0  0  0
   -0.6009   -4.9127    3.1525 H   0  0  0  0  0  0  0  0  0  0  0  0
   -4.3992    3.4595   -2.3569 H   0  0  0  0  0  0  0  0  0  0  0  0
    3.6934   -4.4234    2.6812 H   0  0  0  0  0  0  0  0  0  0  0  0
    1.7254   -5.8600    3.2217 H   0  0  0  0  0  0  0  0  0  0  0  0
   -4.7892    4.3673   -0.0629 H   0  0  0  0  0  0  0  0  0  0  0  0
  1  2  1  0
  2  4  1  6
  2  3  1  0
  2  5  1  0
  3 24  1  0
  6 38  1  0
  6 34  1  0
  6 36  1  0
  7 37  1  0
  7 35  1  0
  8  1  1  0
  9  3  1  0
 10 15  1  0
 11 10  2  0
 11 12  1  0
 12 13  2  0
 13 14  1  0
 13  1  1  0
 14 19  1  0
 15 20  1  0
 15 14  2  0
 16 10  1  0
 17 11  1  0
 18 12  1  0
 21 27  1  0
 22 21  1  0
 22 28  1  0
 23 22  2  0
 24 25  2  0
 24 23  1  0
 25 26  1  0
 26 31  1  0
 26 21  2  0
 29 23  1  0
 30 25  1  0
 32 40  1  0
 34 32  1  0
 34 56  1  1
 35 57  1  6
 35 33  1  0
 35 34  1  0
 36 42  1  1
 36 47  1  0
 37 45  1  6
 37 43  1  0
 38 48  2  0
 38 40  1  0
 39  7  1  0
 39 41  1  0
 40 50  2  0
 41 51  2  0
 41 33  1  0
 42 58  1  0
 42 68  1  0
 43 71  1  0
 44 37  1  0
 45 75  1  0
 46 61  1  0
 46 36  1  0
 47 63  1  0
 47 64  1  0
 48 53  1  0
 49 52  1  0
 49 39  2  0
 50 55  1  0
 50 79  1  0
 51 78  1  0
 52 54  2  0
 53 81  1  0
 53 55  2  0
 54 83  1  0
 54 51  1  0
 55 82  1  0
 59 46  1  0
 60 46  1  0
 62 47  1  0
 65 45  1  0
 66 45  1  0
 67 42  1  0
 69 43  1  0
 70 43  1  0
 72 44  1  0
 73 44  1  0
 74 44  1  0
 76 49  1  0
 77 48  1  0
 80 52  1  0
M  END
>  <Energy>  (2) 
-2396.579573

$$$$
39_cs_CONF_0003.xyz
     RDKit          3D

 83 87  0  0  1  0  0  0  0  0999 V2000
    0.7087    0.5816   -2.8086 C   0  0  0  0  0  3  0  0  0  0  0  0
    1.9010    0.9452   -2.1083 C   0  0  1  0  0  0  0  0  0  0  0  0
    2.6871   -0.0329   -1.4643 C   0  0  0  0  0  3  0  0  0  0  0  0
    2.1284    2.0079   -1.9590 H   0  0  0  0  0  0  0  0  0  0  0  0
    0.5184   -0.0110   -0.6737 Pd  0  0  0  0  0  1  0  0  0  0  0  0
    0.5986   -0.3594    1.6404 P   0  0  0  0  0  0  0  0  0  0  0  0
   -1.7572   -0.4600   -0.5226 P   0  0  0  0  0  0  0  0  0  0  0  0
    0.6997   -0.4081   -3.2873 H   0  0  0  0  0  0  0  0  0  0  0  0
    2.5304   -1.0788   -1.7732 H   0  0  0  0  0  0  0  0  0  0  0  0
   -1.9242    3.4907   -4.5883 C   0  0  0  0  0  0  0  0  0  0  0  0
   -1.2027    3.8180   -3.4280 C   0  0  0  0  0  0  0  0  0  0  0  0
   -0.3559    2.8751   -2.8360 C   0  0  0  0  0  0  0  0  0  0  0  0
   -0.2008    1.5862   -3.3996 C   0  0  0  0  0  0  0  0  0  0  0  0
   -0.9344    1.2700   -4.5653 C   0  0  0  0  0  0  0  0  0  0  0  0
   -1.7890    2.2123   -5.1525 C   0  0  0  0  0  0  0  0  0  0  0  0
   -2.5897    4.2278   -5.0488 H   0  0  0  0  0  0  0  0  0  0  0  0
   -1.3126    4.8086   -2.9752 H   0  0  0  0  0  0  0  0  0  0  0  0
    0.1702    3.1320   -1.9097 H   0  0  0  0  0  0  0  0  0  0  0  0
   -0.8230    0.2805   -5.0214 H   0  0  0  0  0  0  0  0  0  0  0  0
   -2.3452    1.9504   -6.0584 H   0  0  0  0  0  0  0  0  0  0  0  0
    6.3411    0.5378    0.7214 C   0  0  0  0  0  0  0  0  0  0  0  0
    5.8654   -0.7524    0.4393 C   0  0  0  0  0  0  0  0  0  0  0  0
    4.6756   -0.9174   -0.2779 C   0  0  0  0  0  0  0  0  0  0  0  0
    3.9332    0.2023   -0.7225 C   0  0  0  0  0  0  0  0  0  0  0  0
    4.4314    1.4964   -0.4403 C   0  0  0  0  0  0  0  0  0  0  0  0
    5.6224    1.6594    0.2741 C   0  0  0  0  0  0  0  0  0  0  0  0
    7.2723    0.6703    1.2812 H   0  0  0  0  0  0  0  0  0  0  0  0
    6.4262   -1.6304    0.7755 H   0  0  0  0  0  0  0  0  0  0  0  0
    4.3074   -1.9257   -0.5002 H   0  0  0  0  0  0  0  0  0  0  0  0
    3.8886    2.3838   -0.7807 H   0  0  0  0  0  0  0  0  0  0  0  0
    5.9958    2.6671    0.4824 H   0  0  0  0  0  0  0  0  0  0  0  0
   -1.2078   -1.2164    3.4493 O   0  0  0  0  0  0  0  0  0  0  0  0
   -3.4880   -0.1610    1.5389 O   0  0  0  0  0  0  0  0  0  0  0  0
   -1.1790   -0.3327    2.3106 C   0  0  2  0  0  0  0  0  0  0  0  0
   -2.2248   -0.8016    1.2815 C   0  0  2  0  0  0  0  0  0  0  0  0
    1.5484    0.9009    2.7119 C   0  0  1  0  0  0  0  0  0  0  0  0
   -2.3472   -2.0161   -1.4449 C   0  0  2  0  0  0  0  0  0  0  0  0
    0.8167   -1.9695    2.4447 C   0  0  0  0  0  0  0  0  0  0  0  0
   -3.0807    0.7647   -0.6244 C   0  0  0  0  0  0  0  0  0  0  0  0
   -0.2344   -2.1796    3.3658 C   0  0  0  0  0  0  0  0  0  0  0  0
   -3.8527    0.7240    0.5594 C   0  0  0  0  0  0  0  0  0  0  0  0
    3.0161    0.4311    2.7668 C   0  0  0  0  0  0  0  0  0  0  0  0
   -1.3830   -3.1583   -1.0619 C   0  0  0  0  0  0  0  0  0  0  0  0
   -2.2625   -1.7196   -2.9549 C   0  0  0  0  0  0  0  0  0  0  0  0
   -3.8007   -2.3463   -1.0524 C   0  0  0  0  0  0  0  0  0  0  0  0
    1.4249    2.2616    1.9959 C   0  0  0  0  0  0  0  0  0  0  0  0
    0.9800    0.9727    4.1425 C   0  0  0  0  0  0  0  0  0  0  0  0
    1.8477   -2.9172    2.3244 C   0  0  0  0  0  0  0  0  0  0  0  0
   -3.4395    1.6370   -1.6683 C   0  0  0  0  0  0  0  0  0  0  0  0
   -0.2674   -3.3199    4.1792 C   0  0  0  0  0  0  0  0  0  0  0  0
   -4.9771    1.5447    0.7188 C   0  0  0  0  0  0  0  0  0  0  0  0
   -4.5609    2.4609   -1.5146 C   0  0  0  0  0  0  0  0  0  0  0  0
    1.8199   -4.0632    3.1301 C   0  0  0  0  0  0  0  0  0  0  0  0
   -5.3181    2.4110   -0.3287 C   0  0  0  0  0  0  0  0  0  0  0  0
    0.7706   -4.2534    4.0500 C   0  0  0  0  0  0  0  0  0  0  0  0
   -1.4542    0.6742    2.6619 H   0  0  0  0  0  0  0  0  0  0  0  0
   -2.3689   -1.8862    1.4217 H   0  0  0  0  0  0  0  0  0  0  0  0
    3.6198    1.1992    3.2826 H   0  0  0  0  0  0  0  0  0  0  0  0
    0.3712    2.5811    1.8990 H   0  0  0  0  0  0  0  0  0  0  0  0
    1.8709    2.2236    0.9863 H   0  0  0  0  0  0  0  0  0  0  0  0
    1.9587    3.0343    2.5778 H   0  0  0  0  0  0  0  0  0  0  0  0
   -0.0500    1.3645    4.1747 H   0  0  0  0  0  0  0  0  0  0  0  0
    0.9984   -0.0115    4.6399 H   0  0  0  0  0  0  0  0  0  0  0  0
    1.6129    1.6594    4.7340 H   0  0  0  0  0  0  0  0  0  0  0  0
   -4.4867   -1.5233   -1.3152 H   0  0  0  0  0  0  0  0  0  0  0  0
   -4.1225   -3.2476   -1.6052 H   0  0  0  0  0  0  0  0  0  0  0  0
    3.4440    0.2875    1.7635 H   0  0  0  0  0  0  0  0  0  0  0  0
    3.1133   -0.5118    3.3309 H   0  0  0  0  0  0  0  0  0  0  0  0
   -1.6696   -4.0771   -1.6044 H   0  0  0  0  0  0  0  0  0  0  0  0
   -0.3397   -2.9118   -1.3318 H   0  0  0  0  0  0  0  0  0  0  0  0
   -1.4111   -3.3877    0.0183 H   0  0  0  0  0  0  0  0  0  0  0  0
   -2.6253   -2.5979   -3.5186 H   0  0  0  0  0  0  0  0  0  0  0  0
   -1.2246   -1.5223   -3.2684 H   0  0  0  0  0  0  0  0  0  0  0  0
   -2.8862   -0.8545   -3.2390 H   0  0  0  0  0  0  0  0  0  0  0  0
   -3.9127   -2.5612    0.0239 H   0  0  0  0  0  0  0  0  0  0  0  0
   -2.8525    1.6686   -2.5890 H   0  0  0  0  0  0  0  0  0  0  0  0
    2.6640   -2.7531    1.6135 H   0  0  0  0  0  0  0  0  0  0  0  0
   -5.5608    1.4942    1.6419 H   0  0  0  0  0  0  0  0  0  0  0  0
   -1.0890   -3.4623    4.8864 H   0  0  0  0  0  0  0  0  0  0  0  0
   -4.8457    3.1437   -2.3205 H   0  0  0  0  0  0  0  0  0  0  0  0
    2.6141   -4.8109    3.0460 H   0  0  0  0  0  0  0  0  0  0  0  0
    0.7574   -5.1520    4.6753 H   0  0  0  0  0  0  0  0  0  0  0  0
   -6.1928    3.0601   -0.2170 H   0  0  0  0  0  0  0  0  0  0  0  0
  1  2  1  0
  2  4  1  6
  2  3  1  0
  2  5  1  0
  3 24  1  0
  6 34  1  0
  6 38  1  0
  6 36  1  0
  7 37  1  0
  7 35  1  0
  8  1  1  0
  9  3  1  0
 10 11  1  0
 11 17  1  0
 11 12  2  0
 12 18  1  0
 13 12  1  0
 13  1  1  0
 14 13  2  0
 15 10  2  0
 15 14  1  0
 16 10  1  0
 19 14  1  0
 20 15  1  0
 21 27  1  0
 22 21  1  0
 22 28  1  0
 23 22  2  0
 24 25  2  0
 24 23  1  0
 25 26  1  0
 26 31  1  0
 26 21  2  0
 29 23  1  0
 30 25  1  0
 34 56  1  1
 34 32  1  0
 35 57  1  6
 35 33  1  0
 35 34  1  0
 36 42  1  1
 36 47  1  0
 37 43  1  6
 37 45  1  0
 38 40  1  0
 39  7  1  0
 39 41  1  0
 40 32  1  0
 40 50  2  0
 41 51  2  0
 41 33  1  0
 42 58  1  0
 42 68  1  0
 43 71  1  0
 44 37  1  0
 45 75  1  0
 46 61  1  0
 46 36  1  0
 47 62  1  0
 47 63  1  0
 47 64  1  0
 48 38  2  0
 48 53  1  0
 49 52  1  0
 49 39  2  0
 50 79  1  0
 51 78  1  0
 52 54  2  0
 53 55  2  0
 54 83  1  0
 54 51  1  0
 55 50  1  0
 55 82  1  0
 59 46  1  0
 60 46  1  0
 65 45  1  0
 66 45  1  0
 67 42  1  0
 69 43  1  0
 70 43  1  0
 72 44  1  0
 73 44  1  0
 74 44  1  0
 76 49  1  0
 77 48  1  0
 80 52  1  0
 81 53  1  0
M  END
>  <Energy>  (3) 
-2396.578547

$$$$
