53_cs_CONF_0001.xyz
     RDKit          3D

 45 45  0  0  0  0  0  0  0  0999 V2000
    0.5148   -0.1936   -2.3272 C   0  0  0  0  0  3  0  0  0  0  0  0
    1.2258    0.8153   -1.6157 C   0  0  0  0  0  0  0  0  0  0  0  0
    2.2739    0.4390   -0.7294 C   0  0  0  0  0  3  0  0  0  0  0  0
    0.8356    1.8392   -1.5925 H   0  0  0  0  0  0  0  0  0  0  0  0
    0.3734   -0.5848   -0.1356 Pd  0  0  0  0  0  1  0  0  0  0  0  0
    0.4031   -0.6823    2.1786 P   0  0  0  0  0  0  0  0  0  0  0  0
   -1.6333   -1.7132    0.0978 P   0  0  0  0  0  0  0  0  0  0  0  0
    1.0568   -1.1306   -2.5345 H   0  0  0  0  0  0  0  0  0  0  0  0
    2.7876   -0.5133   -0.9385 H   0  0  0  0  0  0  0  0  0  0  0  0
   -3.2024    0.1574   -4.4338 C   0  0  0  0  0  0  0  0  0  0  0  0
   -2.7206    1.2561   -3.7012 C   0  0  0  0  0  0  0  0  0  0  0  0
   -1.5039    1.1694   -3.0212 C   0  0  0  0  0  0  0  0  0  0  0  0
   -0.7391   -0.0208   -3.0700 C   0  0  0  0  0  0  0  0  0  0  0  0
   -1.2344   -1.1185   -3.8151 C   0  0  0  0  0  0  0  0  0  0  0  0
   -2.4558   -1.0301   -4.4892 C   0  0  0  0  0  0  0  0  0  0  0  0
   -4.1589    0.2287   -4.9613 H   0  0  0  0  0  0  0  0  0  0  0  0
   -3.3024    2.1822   -3.6577 H   0  0  0  0  0  0  0  0  0  0  0  0
   -1.1544    2.0287   -2.4400 H   0  0  0  0  0  0  0  0  0  0  0  0
   -0.6537   -2.0469   -3.8563 H   0  0  0  0  0  0  0  0  0  0  0  0
   -2.8264   -1.8865   -5.0611 H   0  0  0  0  0  0  0  0  0  0  0  0
    4.2152    2.8549    2.2350 C   0  0  0  0  0  0  0  0  0  0  0  0
    4.5911    1.5160    2.0410 C   0  0  0  0  0  0  0  0  0  0  0  0
    3.9639    0.7510    1.0537 C   0  0  0  0  0  0  0  0  0  0  0  0
    2.9415    1.3082    0.2478 C   0  0  0  0  0  0  0  0  0  0  0  0
    2.5723    2.6584    0.4551 C   0  0  0  0  0  0  0  0  0  0  0  0
    3.2089    3.4236    1.4359 C   0  0  0  0  0  0  0  0  0  0  0  0
    4.7084    3.4569    3.0049 H   0  0  0  0  0  0  0  0  0  0  0  0
    5.3773    1.0706    2.6585 H   0  0  0  0  0  0  0  0  0  0  0  0
    4.2556   -0.2951    0.9061 H   0  0  0  0  0  0  0  0  0  0  0  0
    1.7846    3.1174   -0.1507 H   0  0  0  0  0  0  0  0  0  0  0  0
    2.9197    4.4692    1.5812 H   0  0  0  0  0  0  0  0  0  0  0  0
    1.5628   -2.0751    3.2471 Cl  0  0  0  0  0  0  0  0  0  0  0  0
    0.7502    1.0979    3.1581 Cl  0  0  0  0  0  0  0  0  0  0  0  0
   -3.4281   -0.7933   -0.4889 Cl  0  0  0  0  0  0  0  0  0  0  0  0
   -1.7641   -3.5781   -0.7762 Cl  0  0  0  0  0  0  0  0  0  0  0  0
   -1.2439   -0.9908    2.5327 N   0  0  0  0  0  0  0  0  0  0  0  0
   -1.6932   -2.0923    1.7639 N   0  0  0  0  0  0  0  0  0  0  0  0
   -2.1636   -0.4071    3.5156 C   0  0  0  0  0  0  0  0  0  0  0  0
   -2.2247   -3.2606    2.4758 C   0  0  0  0  0  0  0  0  0  0  0  0
   -1.7185    0.5217    3.8991 H   0  0  0  0  0  0  0  0  0  0  0  0
   -2.3447   -1.0957    4.3595 H   0  0  0  0  0  0  0  0  0  0  0  0
   -3.1140   -0.1717    3.0078 H   0  0  0  0  0  0  0  0  0  0  0  0
   -2.3803   -4.0694    1.7479 H   0  0  0  0  0  0  0  0  0  0  0  0
   -3.1836   -3.0296    2.9717 H   0  0  0  0  0  0  0  0  0  0  0  0
   -1.4786   -3.5822    3.2214 H   0  0  0  0  0  0  0  0  0  0  0  0
  1  2  1  0
  2  4  1  0
  2  3  1  0
  2  5  1  0
  3 24  1  0
  6 36  1  0
  6 33  1  0
  6 32  1  0
  7 37  1  0
  8  1  1  0
  9  3  1  0
 10 11  1  0
 11 17  1  0
 11 12  2  0
 12 18  1  0
 13 12  1  0
 13  1  1  0
 14 13  2  0
 15 10  2  0
 15 14  1  0
 16 10  1  0
 19 14  1  0
 20 15  1  0
 21 27  1  0
 22 21  1  0
 22 28  1  0
 23 22  2  0
 24 25  2  0
 24 23  1  0
 25 26  1  0
 26 31  1  0
 26 21  2  0
 29 23  1  0
 30 25  1  0
 34  7  1  0
 35  7  1  0
 36 38  1  0
 37 39  1  0
 37 36  1  0
 38 40  1  0
 38 41  1  0
 39 44  1  0
 39 45  1  0
 42 38  1  0
 43 39  1  0
M  END
>  <Energy>  (1) 
-3420.7628979999995

$$$$
