63_cs_CONF_0001.xyz
     RDKit          3D

103109  0  0  1  0  0  0  0  0999 V2000
    1.2537   -0.6796   -2.2371 C   0  0  0  0  0  3  0  0  0  0  0  0
    1.5373    0.6707   -1.9480 C   0  0  1  0  0  0  0  0  0  0  0  0
    2.3057    1.0157   -0.7975 C   0  0  0  0  0  3  0  0  0  0  0  0
    1.1006    1.4616   -2.5702 H   0  0  0  0  0  0  0  0  0  0  0  0
    0.3699    0.0028   -0.1861 Pd  0  0  0  0  0  1  0  0  0  0  0  0
    0.2859    0.2609    2.1339 P   0  0  0  0  0  0  0  0  0  0  0  0
   -1.7206   -1.0517    0.0514 P   0  0  0  0  0  0  0  0  0  0  0  0
    1.8671   -1.4236   -1.7090 H   0  0  0  0  0  0  0  0  0  0  0  0
    2.9932    0.2508   -0.4134 H   0  0  0  0  0  0  0  0  0  0  0  0
   -0.6728   -2.2449   -5.7383 C   0  0  0  0  0  0  0  0  0  0  0  0
    0.1577   -3.0585   -4.9525 C   0  0  0  0  0  0  0  0  0  0  0  0
    0.7725   -2.5332   -3.8103 C   0  0  0  0  0  0  0  0  0  0  0  0
    0.5715   -1.1840   -3.4333 C   0  0  0  0  0  0  0  0  0  0  0  0
   -0.2632   -0.3749   -4.2383 C   0  0  0  0  0  0  0  0  0  0  0  0
   -0.8782   -0.9021   -5.3763 C   0  0  0  0  0  0  0  0  0  0  0  0
   -1.1585   -2.6544   -6.6299 H   0  0  0  0  0  0  0  0  0  0  0  0
    0.3277   -4.1033   -5.2315 H   0  0  0  0  0  0  0  0  0  0  0  0
    1.4243   -3.1708   -3.2024 H   0  0  0  0  0  0  0  0  0  0  0  0
   -0.4596    0.6616   -3.9540 H   0  0  0  0  0  0  0  0  0  0  0  0
   -1.5297   -0.2630   -5.9804 H   0  0  0  0  0  0  0  0  0  0  0  0
    3.5320    5.0581    0.0302 C   0  0  0  0  0  0  0  0  0  0  0  0
    2.2779    4.8192   -0.5562 C   0  0  0  0  0  0  0  0  0  0  0  0
    1.8638    3.5096   -0.8195 C   0  0  0  0  0  0  0  0  0  0  0  0
    2.6902    2.4086   -0.5003 C   0  0  0  0  0  0  0  0  0  0  0  0
    3.9494    2.6647    0.0894 C   0  0  0  0  0  0  0  0  0  0  0  0
    4.3666    3.9759    0.3486 C   0  0  0  0  0  0  0  0  0  0  0  0
    3.8556    6.0832    0.2371 H   0  0  0  0  0  0  0  0  0  0  0  0
    1.6194    5.6584   -0.8039 H   0  0  0  0  0  0  0  0  0  0  0  0
    0.8776    3.3314   -1.2583 H   0  0  0  0  0  0  0  0  0  0  0  0
    4.6006    1.8208    0.3394 H   0  0  0  0  0  0  0  0  0  0  0  0
    5.3478    4.1544    0.8005 H   0  0  0  0  0  0  0  0  0  0  0  0
   -1.1840   -0.8217    4.1043 O   0  0  0  0  0  0  0  0  0  0  0  0
   -3.4614   -1.3571    2.0764 O   0  0  0  0  0  0  0  0  0  0  0  0
   -1.3974   -0.2873    2.7812 C   0  0  2  0  0  0  0  0  0  0  0  0
   -2.0344   -1.3666    1.8875 C   0  0  2  0  0  0  0  0  0  0  0  0
    0.6029    1.9180    3.0157 C   0  0  1  0  0  0  0  0  0  0  0  0
   -2.1084   -2.7221   -0.7808 C   0  0  1  0  0  0  0  0  0  0  0  0
   -3.3082   -0.1425    0.0286 C   0  0  0  0  0  0  0  0  0  0  0  0
    1.0154   -1.0172    3.2133 C   0  0  0  0  0  0  0  0  0  0  0  0
   -4.0734   -0.5604    1.1460 C   0  0  0  0  0  0  0  0  0  0  0  0
    0.0801   -1.3347    4.2273 C   0  0  0  0  0  0  0  0  0  0  0  0
   -0.1014    2.9838    2.1515 C   0  0  0  0  0  0  0  0  0  0  0  0
   -2.4899   -2.4020   -2.2404 C   0  0  0  0  0  0  0  0  0  0  0  0
    0.0614    1.9415    4.4582 C   0  0  0  0  0  0  0  0  0  0  0  0
    2.1297    2.1190    3.0377 C   0  0  0  0  0  0  0  0  0  0  0  0
   -0.8088   -3.5471   -0.6906 C   0  0  0  0  0  0  0  0  0  0  0  0
   -3.2693   -3.4771   -0.1047 C   0  0  0  0  0  0  0  0  0  0  0  0
    2.3175   -1.5631    3.2523 C   0  0  0  0  0  0  0  0  0  0  0  0
   -3.8961    0.6866   -0.9565 C   0  0  0  0  0  0  0  0  0  0  0  0
    0.4319   -2.1239    5.3288 C   0  0  0  0  0  0  0  0  0  0  0  0
   -5.4223   -0.2164    1.2925 C   0  0  0  0  0  0  0  0  0  0  0  0
    2.6720   -2.3465    4.3690 C   0  0  0  0  0  0  0  0  0  0  0  0
   -5.2607    1.0179   -0.8083 C   0  0  0  0  0  0  0  0  0  0  0  0
    3.2740   -1.4367    2.1115 C   0  0  0  0  0  0  0  0  0  0  0  0
   -3.1457    1.2967   -2.0910 C   0  0  0  0  0  0  0  0  0  0  0  0
   -6.0084    0.5654    0.2903 C   0  0  0  0  0  0  0  0  0  0  0  0
    1.7457   -2.6056    5.3941 C   0  0  0  0  0  0  0  0  0  0  0  0
    3.0222   -2.1639    0.9272 C   0  0  0  0  0  0  0  0  0  0  0  0
   -3.6452    1.2002   -3.4078 C   0  0  0  0  0  0  0  0  0  0  0  0
    4.4748   -0.7093    2.2216 C   0  0  0  0  0  0  0  0  0  0  0  0
   -2.0238    2.1209   -1.8503 C   0  0  0  0  0  0  0  0  0  0  0  0
   -3.0585    1.9251   -4.4534 C   0  0  0  0  0  0  0  0  0  0  0  0
    3.9627   -2.1780   -0.1131 C   0  0  0  0  0  0  0  0  0  0  0  0
   -1.4526    2.8613   -2.8957 C   0  0  0  0  0  0  0  0  0  0  0  0
    5.4036   -0.7056    1.1691 C   0  0  0  0  0  0  0  0  0  0  0  0
    5.1537   -1.4435    0.0019 C   0  0  0  0  0  0  0  0  0  0  0  0
   -1.9683    2.7706   -4.1982 C   0  0  0  0  0  0  0  0  0  0  0  0
   -1.6644   -2.3589    2.1916 H   0  0  0  0  0  0  0  0  0  0  0  0
   -2.0901    0.5639    2.8764 H   0  0  0  0  0  0  0  0  0  0  0  0
    2.3598    3.1332    3.4108 H   0  0  0  0  0  0  0  0  0  0  0  0
    2.5733    2.0237    2.0359 H   0  0  0  0  0  0  0  0  0  0  0  0
    2.6120    1.3894    3.7107 H   0  0  0  0  0  0  0  0  0  0  0  0
    0.3173    2.9204    4.9037 H   0  0  0  0  0  0  0  0  0  0  0  0
   -1.0336    1.8284    4.5082 H   0  0  0  0  0  0  0  0  0  0  0  0
    0.5244    1.1600    5.0838 H   0  0  0  0  0  0  0  0  0  0  0  0
    0.0600    3.9827    2.5951 H   0  0  0  0  0  0  0  0  0  0  0  0
   -1.1923    2.8126    2.0994 H   0  0  0  0  0  0  0  0  0  0  0  0
    0.3026    2.9987    1.1266 H   0  0  0  0  0  0  0  0  0  0  0  0
   -2.5705   -3.3433   -2.8127 H   0  0  0  0  0  0  0  0  0  0  0  0
   -1.7429   -1.7674   -2.7388 H   0  0  0  0  0  0  0  0  0  0  0  0
   -3.4657   -1.8890   -2.2860 H   0  0  0  0  0  0  0  0  0  0  0  0
   -3.4474   -4.4099   -0.6710 H   0  0  0  0  0  0  0  0  0  0  0  0
   -3.0511   -3.7564    0.9389 H   0  0  0  0  0  0  0  0  0  0  0  0
   -4.2044   -2.8931   -0.1241 H   0  0  0  0  0  0  0  0  0  0  0  0
   -0.9444   -4.5095   -1.2159 H   0  0  0  0  0  0  0  0  0  0  0  0
   -0.5427   -3.7715    0.3587 H   0  0  0  0  0  0  0  0  0  0  0  0
    0.0374   -3.0188   -1.1577 H   0  0  0  0  0  0  0  0  0  0  0  0
   -5.9799   -0.5608    2.1673 H   0  0  0  0  0  0  0  0  0  0  0  0
   -0.3099   -2.3474    6.1000 H   0  0  0  0  0  0  0  0  0  0  0  0
   -5.7271    1.6745   -1.5489 H   0  0  0  0  0  0  0  0  0  0  0  0
    3.6737   -2.7843    4.4132 H   0  0  0  0  0  0  0  0  0  0  0  0
   -7.0616    0.8508    0.3786 H   0  0  0  0  0  0  0  0  0  0  0  0
    2.0467   -3.2239    6.2460 H   0  0  0  0  0  0  0  0  0  0  0  0
   -4.5095    0.5573   -3.6055 H   0  0  0  0  0  0  0  0  0  0  0  0
    2.0991   -2.7484    0.8455 H   0  0  0  0  0  0  0  0  0  0  0  0
   -1.6417    2.2261   -0.8279 H   0  0  0  0  0  0  0  0  0  0  0  0
    4.6840   -0.1513    3.1399 H   0  0  0  0  0  0  0  0  0  0  0  0
   -3.4641    1.8416   -5.4671 H   0  0  0  0  0  0  0  0  0  0  0  0
    3.7749   -2.7760   -1.0116 H   0  0  0  0  0  0  0  0  0  0  0  0
   -0.6155    3.5374   -2.6934 H   0  0  0  0  0  0  0  0  0  0  0  0
    6.3343   -0.1370    1.2688 H   0  0  0  0  0  0  0  0  0  0  0  0
    5.8879   -1.4547   -0.8099 H   0  0  0  0  0  0  0  0  0  0  0  0
   -1.5238    3.3583   -5.0078 H   0  0  0  0  0  0  0  0  0  0  0  0
  1  2  1  0
  1  8  1  0
  2  3  1  0
  2  5  1  0
  3 24  1  0
  3  9  1  0
  2  4  1  6
  6 34  1  0
  6 36  1  0
  6 39  1  0
  7 37  1  0
  7 35  1  0
 10 15  2  0
 10 11  1  0
 11 12  2  0
 12 13  1  0
 12 18  1  0
 13  1  1  0
 14 19  1  0
 14 13  2  0
 15 14  1  0
 16 10  1  0
 17 11  1  0
 20 15  1  0
 21 27  1  0
 21 26  1  0
 22 21  2  0
 23 22  1  0
 23 24  2  0
 24 25  1  0
 25 30  1  0
 25 26  2  0
 26 31  1  0
 28 22  1  0
 29 23  1  0
 32 41  1  0
 34 69  1  1
 34 32  1  0
 35 33  1  0
 35 68  1  1
 35 34  1  0
 36 45  1  1
 36 44  1  0
 37 46  1  6
 37 47  1  0
 38  7  1  0
 38 40  1  0
 39 48  2  0
 39 41  1  0
 40 51  2  0
 40 33  1  0
 41 50  2  0
 42 76  1  0
 42 36  1  0
 43 37  1  0
 44 74  1  0
 44 73  1  0
 44 75  1  0
 45 70  1  0
 45 72  1  0
 46 86  1  0
 47 83  1  0
 48 52  1  0
 49 53  1  0
 49 38  2  0
 50 57  1  0
 50 89  1  0
 51 88  1  0
 52 91  1  0
 52 57  2  0
 53 56  2  0
 54 60  1  0
 54 48  1  0
 55 61  1  0
 55 49  1  0
 56 92  1  0
 56 51  1  0
 57 93  1  0
 58 54  2  0
 59 55  2  0
 60 97  1  0
 61 96  1  0
 62 67  2  0
 62 59  1  0
 63 66  2  0
 63 58  1  0
 64100  1  0
 64 61  2  0
 65101  1  0
 65 60  2  0
 66 65  1  0
 67 64  1  0
 71 45  1  0
 77 42  1  0
 78 42  1  0
 79 43  1  0
 80 43  1  0
 81 43  1  0
 82 47  1  0
 84 47  1  0
 85 46  1  0
 87 46  1  0
 90 53  1  0
 94 59  1  0
 95 58  1  0
 98 62  1  0
 99 63  1  0
102 66  1  0
103 67  1  0
M  END
>  <Energy>  (1) 
-2858.9592420000004

$$$$
