64_cs_CONF_0001.xyz
     RDKit          3D

103109  0  0  1  0  0  0  0  0999 V2000
    1.1336    1.2838   -2.0272 C   0  0  0  0  0  3  0  0  0  0  0  0
   -0.0657    1.9413   -1.6852 C   0  0  1  0  0  0  0  0  0  0  0  0
   -0.1912    2.6017   -0.4277 C   0  0  0  0  0  3  0  0  0  0  0  0
   -0.9293    1.8792   -2.3586 H   0  0  0  0  0  0  0  0  0  0  0  0
    0.1231    0.3748   -0.1279 Pd  0  0  0  0  0  1  0  0  0  0  0  0
   -0.2468    0.0358    2.1534 P   0  0  0  0  0  0  0  0  0  0  0  0
    0.4459   -1.9543   -0.2226 P   0  0  0  0  0  0  0  0  0  0  0  0
    2.0126    1.5409   -1.4191 H   0  0  0  0  0  0  0  0  0  0  0  0
    0.7383    2.9391    0.0492 H   0  0  0  0  0  0  0  0  0  0  0  0
    2.1435   -0.5072   -5.7943 C   0  0  0  0  0  0  0  0  0  0  0  0
    3.1468   -0.1059   -4.8991 C   0  0  0  0  0  0  0  0  0  0  0  0
    2.7990    0.4705   -3.6722 C   0  0  0  0  0  0  0  0  0  0  0  0
    1.4419    0.6596   -3.3179 C   0  0  0  0  0  0  0  0  0  0  0  0
    0.4423    0.2565   -4.2330 C   0  0  0  0  0  0  0  0  0  0  0  0
    0.7918   -0.3213   -5.4558 C   0  0  0  0  0  0  0  0  0  0  0  0
    2.4126   -0.9626   -6.7528 H   0  0  0  0  0  0  0  0  0  0  0  0
    4.2018   -0.2406   -5.1586 H   0  0  0  0  0  0  0  0  0  0  0  0
    3.5859    0.7870   -2.9782 H   0  0  0  0  0  0  0  0  0  0  0  0
   -0.6134    0.3638   -3.9727 H   0  0  0  0  0  0  0  0  0  0  0  0
    0.0036   -0.6369   -6.1465 H   0  0  0  0  0  0  0  0  0  0  0  0
   -3.6492    4.9407    0.6212 C   0  0  0  0  0  0  0  0  0  0  0  0
   -3.8060    3.7791   -0.1533 C   0  0  0  0  0  0  0  0  0  0  0  0
   -2.6916    3.0046   -0.4911 C   0  0  0  0  0  0  0  0  0  0  0  0
   -1.3961    3.3695   -0.0605 C   0  0  0  0  0  0  0  0  0  0  0  0
   -1.2542    4.5408    0.7185 C   0  0  0  0  0  0  0  0  0  0  0  0
   -2.3688    5.3194    1.0528 C   0  0  0  0  0  0  0  0  0  0  0  0
   -4.5216    5.5468    0.8858 H   0  0  0  0  0  0  0  0  0  0  0  0
   -4.8025    3.4749   -0.4901 H   0  0  0  0  0  0  0  0  0  0  0  0
   -2.8254    2.0914   -1.0789 H   0  0  0  0  0  0  0  0  0  0  0  0
   -0.2557    4.8361    1.0570 H   0  0  0  0  0  0  0  0  0  0  0  0
   -2.2381    6.2262    1.6523 H   0  0  0  0  0  0  0  0  0  0  0  0
    0.0951   -3.9805    1.5080 O   0  0  0  0  0  0  0  0  0  0  0  0
    0.2227   -1.9793    3.8663 O   0  0  0  0  0  0  0  0  0  0  0  0
    0.5656   -2.6206    1.5411 C   0  0  2  0  0  0  0  0  0  0  0  0
   -0.2930   -1.8107    2.5293 C   0  0  2  0  0  0  0  0  0  0  0  0
    1.9406   -2.7297   -1.1163 C   0  0  1  0  0  0  0  0  0  0  0  0
   -1.7529    0.7344    3.0854 C   0  0  1  0  0  0  0  0  0  0  0  0
    1.1490    0.1460    3.3240 C   0  0  0  0  0  0  0  0  0  0  0  0
   -0.9194   -3.1445   -0.4831 C   0  0  0  0  0  0  0  0  0  0  0  0
    1.1062   -0.9806    4.1800 C   0  0  0  0  0  0  0  0  0  0  0  0
   -0.8147   -4.1597    0.5003 C   0  0  0  0  0  0  0  0  0  0  0  0
    2.2593   -4.1573   -0.6307 C   0  0  0  0  0  0  0  0  0  0  0  0
   -1.4582    2.2238    3.3438 C   0  0  0  0  0  0  0  0  0  0  0  0
    1.5771   -2.7704   -2.6145 C   0  0  0  0  0  0  0  0  0  0  0  0
    3.1307   -1.7906   -0.8347 C   0  0  0  0  0  0  0  0  0  0  0  0
   -2.9493    0.5457    2.1306 C   0  0  0  0  0  0  0  0  0  0  0  0
   -2.0095    0.0218    4.4273 C   0  0  0  0  0  0  0  0  0  0  0  0
   -1.8506   -3.2822   -1.5403 C   0  0  0  0  0  0  0  0  0  0  0  0
    2.0802    1.1815    3.5596 C   0  0  0  0  0  0  0  0  0  0  0  0
   -1.5764   -5.3325    0.4409 C   0  0  0  0  0  0  0  0  0  0  0  0
    1.9163   -1.0684    5.3183 C   0  0  0  0  0  0  0  0  0  0  0  0
   -2.6052   -4.4742   -1.6007 C   0  0  0  0  0  0  0  0  0  0  0  0
    2.8852    1.0959    4.7132 C   0  0  0  0  0  0  0  0  0  0  0  0
   -2.1439   -2.2160   -2.5400 C   0  0  0  0  0  0  0  0  0  0  0  0
    2.3177    2.2831    2.5789 C   0  0  0  0  0  0  0  0  0  0  0  0
    2.7888   -0.0046    5.5824 C   0  0  0  0  0  0  0  0  0  0  0  0
   -2.4613   -5.4814   -0.6333 C   0  0  0  0  0  0  0  0  0  0  0  0
   -2.1632   -2.5189   -3.9186 C   0  0  0  0  0  0  0  0  0  0  0  0
    2.9722    1.9837    1.3635 C   0  0  0  0  0  0  0  0  0  0  0  0
   -2.5739   -0.9372   -2.1210 C   0  0  0  0  0  0  0  0  0  0  0  0
    2.0152    3.6260    2.8764 C   0  0  0  0  0  0  0  0  0  0  0  0
    3.3335    3.0094    0.4780 C   0  0  0  0  0  0  0  0  0  0  0  0
   -2.6226   -1.5820   -4.8535 C   0  0  0  0  0  0  0  0  0  0  0  0
    2.3564    4.6484    1.9771 C   0  0  0  0  0  0  0  0  0  0  0  0
   -3.0529   -0.0097   -3.0578 C   0  0  0  0  0  0  0  0  0  0  0  0
   -3.0837   -0.3281   -4.4246 C   0  0  0  0  0  0  0  0  0  0  0  0
    3.0208    4.3447    0.7789 C   0  0  0  0  0  0  0  0  0  0  0  0
   -1.3237   -2.1991    2.5214 H   0  0  0  0  0  0  0  0  0  0  0  0
    1.6100   -2.6375    1.8917 H   0  0  0  0  0  0  0  0  0  0  0  0
    4.0212   -2.1476   -1.3827 H   0  0  0  0  0  0  0  0  0  0  0  0
    3.3844   -1.7688    0.2410 H   0  0  0  0  0  0  0  0  0  0  0  0
    2.9179   -0.7605   -1.1619 H   0  0  0  0  0  0  0  0  0  0  0  0
    1.2326   -1.7953   -2.9881 H   0  0  0  0  0  0  0  0  0  0  0  0
    2.4675   -3.0622   -3.1996 H   0  0  0  0  0  0  0  0  0  0  0  0
    0.7841   -3.5138   -2.8045 H   0  0  0  0  0  0  0  0  0  0  0  0
    3.1106   -4.5390   -1.2240 H   0  0  0  0  0  0  0  0  0  0  0  0
    1.4102   -4.8429   -0.7886 H   0  0  0  0  0  0  0  0  0  0  0  0
    2.5489   -4.1957    0.4321 H   0  0  0  0  0  0  0  0  0  0  0  0
   -2.3604    2.7086    3.7582 H   0  0  0  0  0  0  0  0  0  0  0  0
   -1.1869    2.7574    2.4212 H   0  0  0  0  0  0  0  0  0  0  0  0
   -0.6404    2.3412    4.0756 H   0  0  0  0  0  0  0  0  0  0  0  0
   -2.8746    0.5093    4.9133 H   0  0  0  0  0  0  0  0  0  0  0  0
   -2.2527   -1.0464    4.3075 H   0  0  0  0  0  0  0  0  0  0  0  0
   -1.1493    0.1116    5.1115 H   0  0  0  0  0  0  0  0  0  0  0  0
   -3.8629    0.9528    2.5999 H   0  0  0  0  0  0  0  0  0  0  0  0
   -3.1329   -0.5221    1.9110 H   0  0  0  0  0  0  0  0  0  0  0  0
   -2.7904    1.0791    1.1796 H   0  0  0  0  0  0  0  0  0  0  0  0
    1.8567   -1.9476    5.9650 H   0  0  0  0  0  0  0  0  0  0  0  0
   -1.4649   -6.0938    1.2173 H   0  0  0  0  0  0  0  0  0  0  0  0
    3.6182    1.8845    4.9083 H   0  0  0  0  0  0  0  0  0  0  0  0
   -3.3448   -4.5900   -2.3987 H   0  0  0  0  0  0  0  0  0  0  0  0
    3.4323   -0.0480    6.4671 H   0  0  0  0  0  0  0  0  0  0  0  0
   -3.0716   -6.3874   -0.7051 H   0  0  0  0  0  0  0  0  0  0  0  0
    3.2288    0.9427    1.1376 H   0  0  0  0  0  0  0  0  0  0  0  0
   -1.8239   -3.5048   -4.2538 H   0  0  0  0  0  0  0  0  0  0  0  0
    1.5174    3.8693    3.8206 H   0  0  0  0  0  0  0  0  0  0  0  0
   -2.5894   -0.6975   -1.0512 H   0  0  0  0  0  0  0  0  0  0  0  0
    3.8749    2.7702   -0.4438 H   0  0  0  0  0  0  0  0  0  0  0  0
   -2.6355   -1.8378   -5.9181 H   0  0  0  0  0  0  0  0  0  0  0  0
    2.1170    5.6886    2.2219 H   0  0  0  0  0  0  0  0  0  0  0  0
   -3.4324    0.9608   -2.7216 H   0  0  0  0  0  0  0  0  0  0  0  0
   -3.4680    0.3966   -5.1497 H   0  0  0  0  0  0  0  0  0  0  0  0
    3.3032    5.1453    0.0879 H   0  0  0  0  0  0  0  0  0  0  0  0
  1  2  1  0
  1  8  1  0
  2  3  1  0
  2  5  1  0
  3 24  1  0
  3  9  1  0
  2  4  1  6
  6 35  1  0
  6 37  1  0
  6 38  1  0
  7 36  1  0
  7 34  1  0
 10 15  2  0
 10 11  1  0
 11 12  2  0
 12 13  1  0
 12 18  1  0
 13  1  1  0
 14 19  1  0
 14 13  2  0
 15 14  1  0
 16 10  1  0
 17 11  1  0
 20 15  1  0
 21 27  1  0
 21 26  1  0
 22 21  2  0
 23 22  1  0
 23 24  2  0
 24 25  1  0
 25 26  2  0
 25 30  1  0
 26 31  1  0
 28 22  1  0
 29 23  1  0
 32 34  1  0
 33 40  1  0
 34 69  1  1
 34 35  1  0
 35 68  1  1
 35 33  1  0
 36 45  1  6
 36 42  1  0
 37 43  1  1
 37 47  1  0
 38 49  2  0
 38 40  1  0
 39  7  1  0
 39 41  1  0
 40 51  2  0
 41 32  1  0
 42 78  1  0
 43 79  1  0
 43 81  1  0
 44 36  1  0
 45 71  1  0
 46 85  1  0
 46 37  1  0
 47 82  1  0
 47 84  1  0
 48 39  2  0
 49 53  1  0
 50 41  2  0
 50 89  1  0
 51 56  1  0
 51 88  1  0
 52 48  1  0
 52 57  2  0
 53 90  1  0
 53 56  2  0
 54 60  1  0
 54 48  1  0
 55 61  1  0
 55 49  1  0
 56 92  1  0
 57 50  1  0
 58 54  2  0
 59 55  2  0
 60 97  1  0
 61 96  1  0
 62 67  2  0
 62 59  1  0
 63 66  2  0
 63 58  1  0
 64100  1  0
 64 61  2  0
 65101  1  0
 65 60  2  0
 66 65  1  0
 67 64  1  0
 70 45  1  0
 72 45  1  0
 73 44  1  0
 74 44  1  0
 75 44  1  0
 76 42  1  0
 77 42  1  0
 80 43  1  0
 83 47  1  0
 86 46  1  0
 87 46  1  0
 91 52  1  0
 93 57  1  0
 94 59  1  0
 95 58  1  0
 98 62  1  0
 99 63  1  0
102 66  1  0
103 67  1  0
M  END
>  <Energy>  (1) 
-2858.959129

$$$$
