69_cs_CONF_0001.xyz
     RDKit          3D

 53 53  0  0  0  0  0  0  0  0999 V2000
    0.4905   -1.1960   -1.9010 C   0  0  0  0  0  3  0  0  0  0  0  0
    1.4745   -0.2447   -1.5041 C   0  0  0  0  0  0  0  0  0  0  0  0
    2.2301   -0.4561   -0.3167 C   0  0  0  0  0  3  0  0  0  0  0  0
    1.5047    0.7349   -1.9969 H   0  0  0  0  0  0  0  0  0  0  0  0
    0.0545   -0.4659    0.1526 Pd  0  0  0  0  0  1  0  0  0  0  0  0
    0.0019    0.2715    2.3553 P   0  0  0  0  0  0  0  0  0  0  0  0
   -2.2514   -0.6850    0.2920 P   0  0  0  0  0  0  0  0  0  0  0  0
    0.6686   -2.2444   -1.6145 H   0  0  0  0  0  0  0  0  0  0  0  0
    2.3938   -1.5022   -0.0130 H   0  0  0  0  0  0  0  0  0  0  0  0
   -2.4400   -0.7372   -5.0256 C   0  0  0  0  0  0  0  0  0  0  0  0
   -1.7991    0.3989   -4.5023 C   0  0  0  0  0  0  0  0  0  0  0  0
   -0.8385    0.2670   -3.4934 C   0  0  0  0  0  0  0  0  0  0  0  0
   -0.4911   -1.0083   -2.9885 C   0  0  0  0  0  0  0  0  0  0  0  0
   -1.1411   -2.1420   -3.5281 C   0  0  0  0  0  0  0  0  0  0  0  0
   -2.1060   -2.0083   -4.5352 C   0  0  0  0  0  0  0  0  0  0  0  0
   -3.1914   -0.6305   -5.8144 H   0  0  0  0  0  0  0  0  0  0  0  0
   -2.0518    1.3939   -4.8832 H   0  0  0  0  0  0  0  0  0  0  0  0
   -0.3644    1.1665   -3.0859 H   0  0  0  0  0  0  0  0  0  0  0  0
   -0.8765   -3.1392   -3.1573 H   0  0  0  0  0  0  0  0  0  0  0  0
   -2.5924   -2.9001   -4.9438 H   0  0  0  0  0  0  0  0  0  0  0  0
    4.8215    2.3352    1.6914 C   0  0  0  0  0  0  0  0  0  0  0  0
    3.9833    2.7880    0.6582 C   0  0  0  0  0  0  0  0  0  0  0  0
    3.1457    1.8936   -0.0168 C   0  0  0  0  0  0  0  0  0  0  0  0
    3.1327    0.5208    0.3225 C   0  0  0  0  0  0  0  0  0  0  0  0
    3.9881    0.0778    1.3581 C   0  0  0  0  0  0  0  0  0  0  0  0
    4.8220    0.9751    2.0375 C   0  0  0  0  0  0  0  0  0  0  0  0
    5.4742    3.0384    2.2183 H   0  0  0  0  0  0  0  0  0  0  0  0
    3.9821    3.8469    0.3796 H   0  0  0  0  0  0  0  0  0  0  0  0
    2.4885    2.2717   -0.8069 H   0  0  0  0  0  0  0  0  0  0  0  0
    3.9985   -0.9851    1.6273 H   0  0  0  0  0  0  0  0  0  0  0  0
    5.4798    0.6109    2.8334 H   0  0  0  0  0  0  0  0  0  0  0  0
   -1.7985    0.5715    2.7659 C   0  0  0  0  0  0  0  0  0  0  0  0
   -2.7001   -0.4832    2.0958 C   0  0  0  0  0  0  0  0  0  0  0  0
    0.5863   -0.9541    3.6002 C   0  0  0  0  0  0  0  0  0  0  0  0
    0.8691    1.8254    2.8108 C   0  0  0  0  0  0  0  0  0  0  0  0
   -3.1619    0.6475   -0.5921 C   0  0  0  0  0  0  0  0  0  0  0  0
   -3.0744   -2.2338   -0.2532 C   0  0  0  0  0  0  0  0  0  0  0  0
   -1.9434    0.5872    3.8613 H   0  0  0  0  0  0  0  0  0  0  0  0
   -2.0382    1.5838    2.3905 H   0  0  0  0  0  0  0  0  0  0  0  0
   -2.5574   -1.4737    2.5665 H   0  0  0  0  0  0  0  0  0  0  0  0
   -3.7692   -0.2230    2.1993 H   0  0  0  0  0  0  0  0  0  0  0  0
    0.0497   -1.9079    3.4681 H   0  0  0  0  0  0  0  0  0  0  0  0
    0.4287   -0.5786    4.6262 H   0  0  0  0  0  0  0  0  0  0  0  0
    1.6629   -1.1301    3.4368 H   0  0  0  0  0  0  0  0  0  0  0  0
    1.9529    1.6832    2.6631 H   0  0  0  0  0  0  0  0  0  0  0  0
    0.6691    2.0877    3.8641 H   0  0  0  0  0  0  0  0  0  0  0  0
    0.5313    2.6414    2.1519 H   0  0  0  0  0  0  0  0  0  0  0  0
   -2.8166    1.6322   -0.2370 H   0  0  0  0  0  0  0  0  0  0  0  0
   -4.2496    0.5536   -0.4287 H   0  0  0  0  0  0  0  0  0  0  0  0
   -2.9390    0.5652   -1.6698 H   0  0  0  0  0  0  0  0  0  0  0  0
   -4.1617   -2.1891   -0.0687 H   0  0  0  0  0  0  0  0  0  0  0  0
   -2.6411   -3.0927    0.2848 H   0  0  0  0  0  0  0  0  0  0  0  0
   -2.8902   -2.3586   -1.3341 H   0  0  0  0  0  0  0  0  0  0  0  0
  1  8  1  0
  1  2  1  0
  2  3  1  0
  2  5  1  0
  3  9  1  0
  3 24  1  0
  4  2  1  0
  6 32  1  0
  6 35  1  0
  6 34  1  0
  7 33  1  0
 10 15  2  0
 10 11  1  0
 11 12  2  0
 12 18  1  0
 12 13  1  0
 13  1  1  0
 14 19  1  0
 14 13  2  0
 15 14  1  0
 16 10  1  0
 17 11  1  0
 20 15  1  0
 21 26  1  0
 21 27  1  0
 22 21  2  0
 23 24  2  0
 23 22  1  0
 24 25  1  0
 25 30  1  0
 25 26  2  0
 26 31  1  0
 28 22  1  0
 29 23  1  0
 32 38  1  0
 33 41  1  0
 33 40  1  0
 33 32  1  0
 34 43  1  0
 35 46  1  0
 36 49  1  0
 36 48  1  0
 36  7  1  0
 37 51  1  0
 37 52  1  0
 37  7  1  0
 39 32  1  0
 42 34  1  0
 44 34  1  0
 45 35  1  0
 47 35  1  0
 50 36  1  0
 53 37  1  0
M  END
>  <Energy>  (1) 
-1628.772336

$$$$
69_cs_CONF_0002.xyz
     RDKit          3D

 53 53  0  0  0  0  0  0  0  0999 V2000
    0.4638   -1.2436   -1.8768 C   0  0  0  0  0  3  0  0  0  0  0  0
    1.5002   -0.3655   -1.4527 C   0  0  0  0  0  0  0  0  0  0  0  0
    2.1991   -0.6225   -0.2376 C   0  0  0  0  0  3  0  0  0  0  0  0
    1.6215    0.6060   -1.9476 H   0  0  0  0  0  0  0  0  0  0  0  0
    0.0185   -0.4663    0.1612 Pd  0  0  0  0  0  1  0  0  0  0  0  0
   -0.0431    0.2896    2.3541 P   0  0  0  0  0  0  0  0  0  0  0  0
   -2.3034   -0.5089    0.2321 P   0  0  0  0  0  0  0  0  0  0  0  0
    0.5427   -2.2947   -1.5568 H   0  0  0  0  0  0  0  0  0  0  0  0
    2.2972   -1.6766    0.0663 H   0  0  0  0  0  0  0  0  0  0  0  0
   -2.3751   -0.6306   -5.0555 C   0  0  0  0  0  0  0  0  0  0  0  0
   -2.2312   -1.8892   -4.4516 C   0  0  0  0  0  0  0  0  0  0  0  0
   -1.2870   -2.0752   -3.4338 C   0  0  0  0  0  0  0  0  0  0  0  0
   -0.4707   -1.0071   -2.9941 C   0  0  0  0  0  0  0  0  0  0  0  0
   -0.6257    0.2545   -3.6142 C   0  0  0  0  0  0  0  0  0  0  0  0
   -1.5646    0.4377   -4.6350 C   0  0  0  0  0  0  0  0  0  0  0  0
   -3.1096   -0.4829   -5.8536 H   0  0  0  0  0  0  0  0  0  0  0  0
   -2.8502   -2.7304   -4.7802 H   0  0  0  0  0  0  0  0  0  0  0  0
   -1.1729   -3.0629   -2.9713 H   0  0  0  0  0  0  0  0  0  0  0  0
   -0.0167    1.1053   -3.2912 H   0  0  0  0  0  0  0  0  0  0  0  0
   -1.6679    1.4207   -5.1059 H   0  0  0  0  0  0  0  0  0  0  0  0
    4.9536    2.0122    1.7706 C   0  0  0  0  0  0  0  0  0  0  0  0
    4.9383    0.6383    2.0532 C   0  0  0  0  0  0  0  0  0  0  0  0
    4.0458   -0.2077    1.3817 C   0  0  0  0  0  0  0  0  0  0  0  0
    3.1485    0.3018    0.4151 C   0  0  0  0  0  0  0  0  0  0  0  0
    3.1761    1.6896    0.1406 C   0  0  0  0  0  0  0  0  0  0  0  0
    4.0708    2.5327    0.8089 C   0  0  0  0  0  0  0  0  0  0  0  0
    5.6520    2.6746    2.2919 H   0  0  0  0  0  0  0  0  0  0  0  0
    5.6295    0.2219    2.7933 H   0  0  0  0  0  0  0  0  0  0  0  0
    4.0469   -1.2822    1.5989 H   0  0  0  0  0  0  0  0  0  0  0  0
    2.4834    2.1182   -0.5919 H   0  0  0  0  0  0  0  0  0  0  0  0
    4.0800    3.6036    0.5804 H   0  0  0  0  0  0  0  0  0  0  0  0
   -1.8070    0.0884    2.9402 C   0  0  0  0  0  0  0  0  0  0  0  0
   -2.7970    0.3878    1.7980 C   0  0  0  0  0  0  0  0  0  0  0  0
    0.9999   -0.5041    3.6408 C   0  0  0  0  0  0  0  0  0  0  0  0
    0.3257    2.0852    2.5148 C   0  0  0  0  0  0  0  0  0  0  0  0
   -3.2638    0.2951   -1.1114 C   0  0  0  0  0  0  0  0  0  0  0  0
   -3.0476   -2.1877    0.3784 C   0  0  0  0  0  0  0  0  0  0  0  0
   -1.9069   -0.9601    3.2777 H   0  0  0  0  0  0  0  0  0  0  0  0
   -1.9971    0.7337    3.8169 H   0  0  0  0  0  0  0  0  0  0  0  0
   -3.8312    0.1211    2.0817 H   0  0  0  0  0  0  0  0  0  0  0  0
   -2.7938    1.4662    1.5528 H   0  0  0  0  0  0  0  0  0  0  0  0
    0.7937   -1.5865    3.6690 H   0  0  0  0  0  0  0  0  0  0  0  0
    0.8062   -0.0624    4.6335 H   0  0  0  0  0  0  0  0  0  0  0  0
    2.0581   -0.3482    3.3697 H   0  0  0  0  0  0  0  0  0  0  0  0
    1.3644    2.2581    2.1847 H   0  0  0  0  0  0  0  0  0  0  0  0
    0.2074    2.4170    3.5610 H   0  0  0  0  0  0  0  0  0  0  0  0
   -0.3502    2.6629    1.8633 H   0  0  0  0  0  0  0  0  0  0  0  0
   -2.9281    1.3379   -1.2293 H   0  0  0  0  0  0  0  0  0  0  0  0
   -4.3438    0.2731   -0.8846 H   0  0  0  0  0  0  0  0  0  0  0  0
   -3.0717   -0.2426   -2.0552 H   0  0  0  0  0  0  0  0  0  0  0  0
   -4.1407   -2.1230    0.5174 H   0  0  0  0  0  0  0  0  0  0  0  0
   -2.5970   -2.7251    1.2288 H   0  0  0  0  0  0  0  0  0  0  0  0
   -2.8290   -2.7469   -0.5469 H   0  0  0  0  0  0  0  0  0  0  0  0
  1  8  1  0
  1  2  1  0
  2  3  1  0
  2  5  1  0
  3  9  1  0
  3 24  1  0
  4  2  1  0
  6 35  1  0
  6 32  1  0
  6 34  1  0
  7 37  1  0
  7 33  1  0
 10 15  2  0
 10 11  1  0
 11 12  2  0
 12 13  1  0
 12 18  1  0
 13  1  1  0
 14 19  1  0
 14 13  2  0
 15 14  1  0
 16 10  1  0
 17 11  1  0
 20 15  1  0
 21 22  1  0
 21 27  1  0
 22 28  1  0
 23 29  1  0
 23 22  2  0
 24 23  1  0
 25 24  2  0
 25 26  1  0
 26 21  2  0
 30 25  1  0
 31 26  1  0
 32 38  1  0
 32 39  1  0
 33 40  1  0
 33 32  1  0
 34 42  1  0
 34 43  1  0
 35 46  1  0
 36 49  1  0
 36  7  1  0
 37 51  1  0
 37 52  1  0
 41 33  1  0
 44 34  1  0
 45 35  1  0
 47 35  1  0
 48 36  1  0
 50 36  1  0
 53 37  1  0
M  END
>  <Energy>  (2) 
-1628.772342

$$$$
69_cs_CONF_0003.xyz
     RDKit          3D

 53 53  0  0  0  0  0  0  0  0999 V2000
    0.4912   -1.2369   -1.8750 C   0  0  0  0  0  3  0  0  0  0  0  0
    1.5022   -0.3246   -1.4618 C   0  0  0  0  0  0  0  0  0  0  0  0
    2.2162   -0.5540   -0.2499 C   0  0  0  0  0  3  0  0  0  0  0  0
    1.5897    0.6479   -1.9620 H   0  0  0  0  0  0  0  0  0  0  0  0
    0.0343   -0.4639    0.1620 Pd  0  0  0  0  0  1  0  0  0  0  0  0
   -0.0376    0.3014    2.3516 P   0  0  0  0  0  0  0  0  0  0  0  0
   -2.2847   -0.5796    0.2485 P   0  0  0  0  0  0  0  0  0  0  0  0
    0.6052   -2.2833   -1.5504 H   0  0  0  0  0  0  0  0  0  0  0  0
    2.3482   -1.6032    0.0580 H   0  0  0  0  0  0  0  0  0  0  0  0
   -2.3867   -0.7281   -5.0371 C   0  0  0  0  0  0  0  0  0  0  0  0
   -2.2001   -1.9784   -4.4277 C   0  0  0  0  0  0  0  0  0  0  0  0
   -1.2436   -2.1302   -3.4157 C   0  0  0  0  0  0  0  0  0  0  0  0
   -0.4575   -1.0353   -2.9873 C   0  0  0  0  0  0  0  0  0  0  0  0
   -0.6551    0.2176   -3.6128 C   0  0  0  0  0  0  0  0  0  0  0  0
   -1.6061    0.3666   -4.6279 C   0  0  0  0  0  0  0  0  0  0  0  0
   -3.1309   -0.6071   -5.8307 H   0  0  0  0  0  0  0  0  0  0  0  0
   -2.7956   -2.8399   -4.7474 H   0  0  0  0  0  0  0  0  0  0  0  0
   -1.0964   -3.1113   -2.9489 H   0  0  0  0  0  0  0  0  0  0  0  0
   -0.0701    1.0883   -3.2985 H   0  0  0  0  0  0  0  0  0  0  0  0
   -1.7425    1.3435   -5.1032 H   0  0  0  0  0  0  0  0  0  0  0  0
    4.8987    2.1723    1.7332 C   0  0  0  0  0  0  0  0  0  0  0  0
    4.9250    0.8001    2.0233 C   0  0  0  0  0  0  0  0  0  0  0  0
    4.0557   -0.0756    1.3594 C   0  0  0  0  0  0  0  0  0  0  0  0
    3.1403    0.4017    0.3934 C   0  0  0  0  0  0  0  0  0  0  0  0
    3.1259    1.7882    0.1113 C   0  0  0  0  0  0  0  0  0  0  0  0
    3.9976    2.6610    0.7716 C   0  0  0  0  0  0  0  0  0  0  0  0
    5.5789    2.8579    2.2483 H   0  0  0  0  0  0  0  0  0  0  0  0
    5.6307    0.4084    2.7632 H   0  0  0  0  0  0  0  0  0  0  0  0
    4.0895   -1.1485    1.5824 H   0  0  0  0  0  0  0  0  0  0  0  0
    2.4183    2.1920   -0.6211 H   0  0  0  0  0  0  0  0  0  0  0  0
    3.9746    3.7304    0.5372 H   0  0  0  0  0  0  0  0  0  0  0  0
   -1.7910    0.0493    2.9494 C   0  0  0  0  0  0  0  0  0  0  0  0
   -2.7964    0.3116    1.8116 C   0  0  0  0  0  0  0  0  0  0  0  0
    1.0367   -0.4532    3.6362 C   0  0  0  0  0  0  0  0  0  0  0  0
    0.2775    2.1082    2.5013 C   0  0  0  0  0  0  0  0  0  0  0  0
   -3.2814    0.1818   -1.0935 C   0  0  0  0  0  0  0  0  0  0  0  0
   -2.9715   -2.2811    0.4125 C   0  0  0  0  0  0  0  0  0  0  0  0
   -1.8565   -0.9998    3.2933 H   0  0  0  0  0  0  0  0  0  0  0  0
   -1.9957    0.6934    3.8238 H   0  0  0  0  0  0  0  0  0  0  0  0
   -3.8203    0.0154    2.1030 H   0  0  0  0  0  0  0  0  0  0  0  0
   -2.8272    1.3881    1.5599 H   0  0  0  0  0  0  0  0  0  0  0  0
    0.8625   -1.5410    3.6724 H   0  0  0  0  0  0  0  0  0  0  0  0
    0.8366   -0.0111    4.6275 H   0  0  0  0  0  0  0  0  0  0  0  0
    2.0881   -0.2681    3.3571 H   0  0  0  0  0  0  0  0  0  0  0  0
    1.3107    2.3096    2.1701 H   0  0  0  0  0  0  0  0  0  0  0  0
    0.1491    2.4426    3.5454 H   0  0  0  0  0  0  0  0  0  0  0  0
   -0.4148    2.6618    1.8461 H   0  0  0  0  0  0  0  0  0  0  0  0
   -2.9861    1.2361   -1.2178 H   0  0  0  0  0  0  0  0  0  0  0  0
   -4.3586    0.1201   -0.8607 H   0  0  0  0  0  0  0  0  0  0  0  0
   -3.0741   -0.3526   -2.0359 H   0  0  0  0  0  0  0  0  0  0  0  0
   -4.0646   -2.2520    0.5628 H   0  0  0  0  0  0  0  0  0  0  0  0
   -2.4942   -2.7980    1.2611 H   0  0  0  0  0  0  0  0  0  0  0  0
   -2.7441   -2.8384   -0.5119 H   0  0  0  0  0  0  0  0  0  0  0  0
  1  8  1  0
  1  2  1  0
  2  3  1  0
  2  5  1  0
  3  9  1  0
  3 24  1  0
  4  2  1  0
  6 35  1  0
  6 32  1  0
  6 34  1  0
  7 37  1  0
  7 33  1  0
 10 15  2  0
 10 11  1  0
 11 12  2  0
 12 13  1  0
 12 18  1  0
 13  1  1  0
 14 19  1  0
 14 13  2  0
 15 14  1  0
 16 10  1  0
 17 11  1  0
 20 15  1  0
 21 22  1  0
 21 27  1  0
 22 28  1  0
 23 29  1  0
 23 22  2  0
 24 23  1  0
 25 24  2  0
 25 26  1  0
 26 21  2  0
 30 25  1  0
 31 26  1  0
 32 38  1  0
 32 39  1  0
 33 40  1  0
 33 32  1  0
 34 42  1  0
 34 43  1  0
 35 46  1  0
 36 49  1  0
 36  7  1  0
 37 51  1  0
 37 52  1  0
 41 33  1  0
 44 34  1  0
 45 35  1  0
 47 35  1  0
 48 36  1  0
 50 36  1  0
 53 37  1  0
M  END
>  <Energy>  (3) 
-1628.772339

$$$$
