73_cs_CONF_0001.xyz
     RDKit          3D

 77 86  0  0  1  0  0  0  0  0999 V2000
    1.2159   -1.0090   -2.9991 C   0  0  0  0  0  0  0  0  0  0  0  0
    1.7228    0.1867   -2.4368 C   0  0  0  0  0  0  0  0  0  0  0  0
    2.9301    0.2455   -1.6860 C   0  0  2  0  0  0  0  0  0  0  0  0
    1.1976    1.1309   -2.6293 H   0  0  0  0  0  0  0  0  0  0  0  0
    1.4874   -0.5847   -0.3050 Pd  0  0  0  0  0  2  0  0  0  0  0  0
    0.9901   -1.3741    3.0102 P   0  0  0  0  0  0  0  0  0  0  0  0
   -1.9850   -2.1735   -0.2955 P   0  0  0  0  0  0  0  0  0  0  0  0
    1.7954   -1.9297   -2.8498 H   0  0  0  0  0  0  0  0  0  0  0  0
    3.6135   -0.6193   -1.7442 H   0  0  0  0  0  0  0  0  0  0  0  0
   -1.8466   -1.3993   -6.0376 C   0  0  0  0  0  0  0  0  0  0  0  0
   -1.7681   -0.0580   -5.3928 C   0  0  2  0  0  0  0  0  0  0  0  0
   -0.6381    0.1694   -4.3318 C   0  0  2  0  0  0  0  0  0  0  0  0
    0.1171   -1.0809   -3.9091 C   0  0  0  0  0  0  0  0  0  0  0  0
   -0.1709   -2.2987   -4.5055 C   0  0  0  0  0  0  0  0  0  0  0  0
   -1.1201   -2.4569   -5.5778 C   0  0  0  0  0  0  0  0  0  0  0  0
   -2.5461   -1.5327   -6.8713 H   0  0  0  0  0  0  0  0  0  0  0  0
   -1.7742    0.7338   -6.1609 H   0  0  0  0  0  0  0  0  0  0  0  0
   -1.6542    1.8163   -3.2409 H   0  0  0  0  0  0  0  0  0  0  0  0
    0.3897   -3.1838   -4.1816 H   0  0  0  0  0  0  0  0  0  0  0  0
   -1.2277   -3.4450   -6.0363 H   0  0  0  0  0  0  0  0  0  0  0  0
    5.8479    1.2629    2.0091 C   0  0  0  0  0  0  0  0  0  0  0  0
    5.5216    0.3573    1.0544 C   0  0  0  0  0  0  0  0  0  0  0  0
    4.1390    2.3642   -2.2553 C   0  0  0  0  0  0  0  0  0  0  0  0
    3.5686    1.5615   -1.3394 C   0  0  0  0  0  0  0  0  0  0  0  0
    3.4937    1.8324    0.1333 C   0  0  2  0  0  0  0  0  0  0  0  0
    4.1896    2.9323    0.9719 C   0  0  0  0  0  0  0  0  0  0  0  0
    6.7938    1.5849    2.4597 H   0  0  0  0  0  0  0  0  0  0  0  0
    6.1114   -0.3428    0.4517 H   0  0  0  0  0  0  0  0  0  0  0  0
    4.1728    2.0971   -3.3174 H   0  0  0  0  0  0  0  0  0  0  0  0
    2.4164    1.8698    0.3980 H   0  0  0  0  0  0  0  0  0  0  0  0
    3.5370    3.7735    1.2535 H   0  0  0  0  0  0  0  0  0  0  0  0
   -0.3120   -0.4000    3.8862 C   0  0  0  0  0  0  0  0  0  0  0  0
    2.2778   -0.1037    2.5860 C   0  0  0  0  0  3  0  0  0  0  0  0
   -3.0934   -1.5777    1.0692 C   0  0  0  0  0  0  0  0  0  0  0  0
   -2.3606   -1.0685   -1.7079 C   0  0  0  0  0  0  0  0  0  0  0  0
   -1.0826    0.5982    3.2546 C   0  0  0  0  0  0  0  0  0  0  0  0
    2.5480    1.0109    3.4839 C   0  0  0  0  0  0  0  0  0  0  0  0
   -3.0888   -2.3063    2.2776 C   0  0  0  0  0  0  0  0  0  0  0  0
   -1.6758    0.0745   -1.9654 C   0  0  0  0  0  0  0  0  0  0  0  0
   -0.5286   -0.7000    5.2462 C   0  0  0  0  0  0  0  0  0  0  0  0
    3.0323   -0.3369    1.4321 C   0  0  0  0  0  3  0  0  0  0  0  0
   -3.9248   -0.4484    0.9408 C   0  0  0  0  0  0  0  0  0  0  0  0
   -3.3865   -1.5611   -2.6483 C   0  0  0  0  0  0  0  0  0  0  0  0
    0.3297   -1.3959    1.3530 C   0  0  0  0  0  3  0  0  0  0  0  0
   -0.4499   -1.5068    0.3604 C   0  0  0  0  0  2  0  0  0  0  0  0
   -2.0512    1.2952    3.9847 C   0  0  0  0  0  0  0  0  0  0  0  0
    3.5969    1.8746    3.3153 C   0  0  0  0  0  0  0  0  0  0  0  0
   -3.8907   -1.8967    3.3497 C   0  0  0  0  0  0  0  0  0  0  0  0
   -1.7244    0.7182   -3.3156 C   0  0  2  0  0  0  0  0  0  0  0  0
   -1.4982    0.0077    5.9734 C   0  0  0  0  0  0  0  0  0  0  0  0
    4.0453    0.7008    1.0625 C   0  0  1  0  0  0  0  0  0  0  0  0
   -4.7445   -0.0578    2.0101 C   0  0  0  0  0  0  0  0  0  0  0  0
   -3.6579   -0.9291   -3.8104 C   0  0  0  0  0  0  0  0  0  0  0  0
   -2.2581    1.0029    5.3433 C   0  0  0  0  0  0  0  0  0  0  0  0
    4.4349    1.8250    2.0899 C   0  0  2  0  0  0  0  0  0  0  0  0
   -4.7240   -0.7750    3.2153 C   0  0  0  0  0  0  0  0  0  0  0  0
   -2.8696    0.2583   -4.2874 C   0  0  2  0  0  0  0  0  0  0  0  0
   -0.9369    0.8111    2.1905 H   0  0  0  0  0  0  0  0  0  0  0  0
    1.9118    1.1044    4.3713 H   0  0  0  0  0  0  0  0  0  0  0  0
   -2.4497   -3.1911    2.3822 H   0  0  0  0  0  0  0  0  0  0  0  0
   -0.9621    0.4734   -1.2330 H   0  0  0  0  0  0  0  0  0  0  0  0
    0.0563   -1.4882    5.7338 H   0  0  0  0  0  0  0  0  0  0  0  0
    3.1696   -1.3817    1.0905 H   0  0  0  0  0  0  0  0  0  0  0  0
   -3.9293    0.1249    0.0075 H   0  0  0  0  0  0  0  0  0  0  0  0
   -3.9692   -2.4431   -2.3564 H   0  0  0  0  0  0  0  0  0  0  0  0
   -2.6560    2.0613    3.4894 H   0  0  0  0  0  0  0  0  0  0  0  0
    3.8078    2.6262    4.0873 H   0  0  0  0  0  0  0  0  0  0  0  0
   -3.8699   -2.4572    4.2899 H   0  0  0  0  0  0  0  0  0  0  0  0
    0.0932    0.9416   -4.6297 H   0  0  0  0  0  0  0  0  0  0  0  0
   -1.6636   -0.2266    7.0302 H   0  0  0  0  0  0  0  0  0  0  0  0
    4.5980    3.3154   -1.9625 H   0  0  0  0  0  0  0  0  0  0  0  0
   -5.3969    0.8154    1.9017 H   0  0  0  0  0  0  0  0  0  0  0  0
   -4.4722   -1.2858   -4.4520 H   0  0  0  0  0  0  0  0  0  0  0  0
   -3.0209    1.5481    5.9090 H   0  0  0  0  0  0  0  0  0  0  0  0
    5.1392    3.3183    0.5701 H   0  0  0  0  0  0  0  0  0  0  0  0
   -5.3574   -0.4610    4.0512 H   0  0  0  0  0  0  0  0  0  0  0  0
   -3.5556    1.0620   -4.6089 H   0  0  0  0  0  0  0  0  0  0  0  0
  1  8  1  0
  1  2  2  0
  2  3  1  0
  3  9  1  6
  3 24  1  0
  3  5  1  0
  4  2  1  0
  5 44  1  0
  6 32  1  0
  7 45  1  0
  7 34  1  0
 10 15  2  0
 10 11  1  0
 11 17  1  6
 11 12  1  0
 11 57  1  0
 12 69  1  6
 12 13  1  0
 12 49  1  0
 13  1  1  0
 14 19  1  0
 14 13  2  0
 15 14  1  0
 16 10  1  0
 20 15  1  0
 21 27  1  0
 22 21  2  0
 23 71  1  0
 23 24  2  0
 24 25  1  0
 25 30  1  1
 25 26  1  0
 25 51  1  0
 26 31  1  0
 26 55  1  0
 28 22  1  0
 29 23  1  0
 32 40  1  0
 33 41  1  0
 33  6  1  0
 33 37  1  0
 34 38  1  0
 35  7  1  0
 36 32  2  0
 36 46  1  0
 37 59  1  0
 38 60  1  0
 38 48  2  0
 39 35  2  0
 39 61  1  0
 40 62  1  0
 40 50  2  0
 42 34  2  0
 42 52  1  0
 43 65  1  0
 43 35  1  0
 44 45  1  0
 44  6  1  0
 46 54  2  0
 47 37  2  0
 47 67  1  0
 48 68  1  0
 49 18  1  1
 49 39  1  0
 50 70  1  0
 51 22  1  6
 51 41  1  0
 51 55  1  0
 52 56  2  0
 53 43  2  0
 54 74  1  0
 54 50  1  0
 55 21  1  1
 55 47  1  0
 56 48  1  0
 56 76  1  0
 57 77  1  6
 57 53  1  0
 57 49  1  0
 58 36  1  0
 63 41  1  0
 64 42  1  0
 66 46  1  0
 72 52  1  0
 73 53  1  0
 75 26  1  0
M  END
>  <Energy>  (1) 
-2393.362982

$$$$
