74_cs_CONF_0001.xyz
     RDKit          3D

 77 81  0  0  0  0  0  0  0  0999 V2000
    0.4531    0.7959   -2.8123 C   0  0  0  0  0  3  0  0  0  0  0  0
    1.8011    1.0118   -2.3661 C   0  0  0  0  0  0  0  0  0  0  0  0
    2.4700   -0.0515   -1.7206 C   0  0  0  0  0  3  0  0  0  0  0  0
    2.2600    2.0043   -2.4392 H   0  0  0  0  0  0  0  0  0  0  0  0
    0.5667    0.6501   -0.6421 Pd  0  0  0  0  0  1  0  0  0  0  0  0
   -0.8684    2.3174    1.6332 P   0  0  0  0  0  0  0  0  0  0  0  0
   -2.4371   -1.0475   -1.4364 P   0  0  0  0  0  0  0  0  0  0  0  0
    0.1891   -0.2354   -3.0856 H   0  0  0  0  0  0  0  0  0  0  0  0
    2.0486   -1.0599   -1.8532 H   0  0  0  0  0  0  0  0  0  0  0  0
   -2.2010    3.7715   -4.3890 C   0  0  0  0  0  0  0  0  0  0  0  0
   -1.0996    4.1712   -3.6111 C   0  0  0  0  0  0  0  0  0  0  0  0
   -0.2237    3.2154   -3.0920 C   0  0  0  0  0  0  0  0  0  0  0  0
   -0.4318    1.8371   -3.3461 C   0  0  0  0  0  0  0  0  0  0  0  0
   -1.5501    1.4495   -4.1213 C   0  0  0  0  0  0  0  0  0  0  0  0
   -2.4242    2.4091   -4.6419 C   0  0  0  0  0  0  0  0  0  0  0  0
   -2.8862    4.5236   -4.7932 H   0  0  0  0  0  0  0  0  0  0  0  0
   -0.9307    5.2331   -3.4065 H   0  0  0  0  0  0  0  0  0  0  0  0
    0.6159    3.5380   -2.4670 H   0  0  0  0  0  0  0  0  0  0  0  0
   -1.7288    0.3861   -4.3117 H   0  0  0  0  0  0  0  0  0  0  0  0
   -3.2819    2.0952   -5.2450 H   0  0  0  0  0  0  0  0  0  0  0  0
    6.4549   -0.0829   -0.1424 C   0  0  0  0  0  0  0  0  0  0  0  0
    5.6956   -1.2637   -0.2039 C   0  0  0  0  0  0  0  0  0  0  0  0
    4.3921   -1.2295   -0.7076 C   0  0  0  0  0  0  0  0  0  0  0  0
    3.8206   -0.0154   -1.1602 C   0  0  0  0  0  0  0  0  0  0  0  0
    4.5920    1.1688   -1.0762 C   0  0  0  0  0  0  0  0  0  0  0  0
    5.8984    1.1312   -0.5790 C   0  0  0  0  0  0  0  0  0  0  0  0
    7.4794   -0.1087    0.2426 H   0  0  0  0  0  0  0  0  0  0  0  0
    6.1272   -2.2114    0.1337 H   0  0  0  0  0  0  0  0  0  0  0  0
    3.7990   -2.1490   -0.7641 H   0  0  0  0  0  0  0  0  0  0  0  0
    4.1723    2.1240   -1.4059 H   0  0  0  0  0  0  0  0  0  0  0  0
    6.4885    2.0521   -0.5316 H   0  0  0  0  0  0  0  0  0  0  0  0
   -3.5685   -1.7078   -0.1205 C   0  0  0  0  0  0  0  0  0  0  0  0
   -1.0234   -2.2545   -1.4606 C   0  0  0  0  0  0  0  0  0  0  0  0
   -1.6340    1.5457    3.1320 C   0  0  0  0  0  0  0  0  0  0  0  0
    0.8904    1.6368    1.6989 C   0  0  0  0  0  0  0  0  0  0  0  0
   -4.5217   -0.8295    0.4381 C   0  0  0  0  0  0  0  0  0  0  0  0
   -0.2793   -2.5794   -0.3041 C   0  0  0  0  0  0  0  0  0  0  0  0
   -1.5611    2.2938    4.3260 C   0  0  0  0  0  0  0  0  0  0  0  0
    1.1362    0.2460    1.8845 C   0  0  0  0  0  0  0  0  0  0  0  0
   -3.5482   -3.0576    0.2804 C   0  0  0  0  0  0  0  0  0  0  0  0
   -0.6284   -2.7833   -2.7043 C   0  0  0  0  0  0  0  0  0  0  0  0
   -2.2843    0.2951    3.1325 C   0  0  0  0  0  0  0  0  0  0  0  0
    1.9867    2.5317    1.6736 C   0  0  0  0  0  0  0  0  0  0  0  0
   -1.6429    0.2154   -0.4256 C   0  0  0  0  0  0  0  0  0  0  0  0
   -1.3415    1.1393    0.3742 C   0  0  0  0  0  0  0  0  0  0  0  0
   -5.4196   -1.2911    1.4088 C   0  0  0  0  0  0  0  0  0  0  0  0
    0.8502   -3.4020   -0.3974 C   0  0  0  0  0  0  0  0  0  0  0  0
   -2.1081    1.7818    5.5104 C   0  0  0  0  0  0  0  0  0  0  0  0
    2.4520   -0.2233    2.0596 C   0  0  0  0  0  0  0  0  0  0  0  0
   -4.4596   -3.5154    1.2449 C   0  0  0  0  0  0  0  0  0  0  0  0
    0.5081   -3.6052   -2.7974 C   0  0  0  0  0  0  0  0  0  0  0  0
   -2.8469   -0.2021    4.3166 C   0  0  0  0  0  0  0  0  0  0  0  0
    3.2904    2.0492    1.8479 C   0  0  0  0  0  0  0  0  0  0  0  0
   -5.3900   -2.6348    1.8151 C   0  0  0  0  0  0  0  0  0  0  0  0
    1.2502   -3.9092   -1.6467 C   0  0  0  0  0  0  0  0  0  0  0  0
   -2.7540    0.5354    5.5063 C   0  0  0  0  0  0  0  0  0  0  0  0
    3.5233    0.6763    2.0459 C   0  0  0  0  0  0  0  0  0  0  0  0
   -4.5536    0.2214    0.1284 H   0  0  0  0  0  0  0  0  0  0  0  0
   -0.5967   -2.1905    0.6693 H   0  0  0  0  0  0  0  0  0  0  0  0
   -1.0781    3.2783    4.3308 H   0  0  0  0  0  0  0  0  0  0  0  0
    0.2912   -0.4407    2.0071 H   0  0  0  0  0  0  0  0  0  0  0  0
   -2.8243   -3.7552   -0.1534 H   0  0  0  0  0  0  0  0  0  0  0  0
   -1.2060   -2.5455   -3.6053 H   0  0  0  0  0  0  0  0  0  0  0  0
   -2.3708   -0.2867    2.2090 H   0  0  0  0  0  0  0  0  0  0  0  0
    1.8063    3.6032    1.5353 H   0  0  0  0  0  0  0  0  0  0  0  0
   -6.1458   -0.5986    1.8469 H   0  0  0  0  0  0  0  0  0  0  0  0
    1.4191   -3.6508    0.5049 H   0  0  0  0  0  0  0  0  0  0  0  0
   -2.0420    2.3644    6.4351 H   0  0  0  0  0  0  0  0  0  0  0  0
    2.6296   -1.2918    2.2171 H   0  0  0  0  0  0  0  0  0  0  0  0
   -4.4382   -4.5668    1.5504 H   0  0  0  0  0  0  0  0  0  0  0  0
    0.8099   -4.0095   -3.7690 H   0  0  0  0  0  0  0  0  0  0  0  0
   -3.3625   -1.1683    4.3021 H   0  0  0  0  0  0  0  0  0  0  0  0
    4.1338    2.7469    1.8356 H   0  0  0  0  0  0  0  0  0  0  0  0
   -6.0966   -2.9956    2.5696 H   0  0  0  0  0  0  0  0  0  0  0  0
    2.1343   -4.5513   -1.7203 H   0  0  0  0  0  0  0  0  0  0  0  0
   -3.1926    0.1441    6.4301 H   0  0  0  0  0  0  0  0  0  0  0  0
    4.5460    0.3115    2.1788 H   0  0  0  0  0  0  0  0  0  0  0  0
  1  2  1  0
  2  3  1  0
  2  5  1  0
  3 24  1  0
  4  2  1  0
  6 35  1  0
  6 34  1  0
  7 44  1  0
  7 32  1  0
  8  1  1  0
  9  3  1  0
 10 11  1  0
 11 17  1  0
 11 12  2  0
 12 18  1  0
 13 12  1  0
 13  1  1  0
 14 13  2  0
 15 10  2  0
 15 14  1  0
 16 10  1  0
 19 14  1  0
 20 15  1  0
 21 27  1  0
 22 21  1  0
 22 28  1  0
 23 22  2  0
 24 25  2  0
 24 23  1  0
 25 26  1  0
 26 31  1  0
 26 21  2  0
 29 23  1  0
 30 25  1  0
 32 40  2  0
 32 36  1  0
 33  7  1  0
 33 37  1  0
 34 42  2  0
 34 38  1  0
 35 39  1  0
 36 46  2  0
 37 59  1  0
 38 60  1  0
 38 48  2  0
 39 61  1  0
 39 49  2  0
 40 50  1  0
 41 33  2  0
 42 52  1  0
 43 35  2  0
 43 53  1  0
 44 45  3  0
 45  6  1  0
 46 54  1  0
 46 66  1  0
 47 37  2  0
 47 67  1  0
 48 68  1  0
 49 69  1  0
 50 70  1  0
 50 54  2  0
 51 41  1  0
 51 55  2  0
 52 56  2  0
 53 57  2  0
 54 74  1  0
 55 47  1  0
 56 48  1  0
 56 76  1  0
 57 49  1  0
 57 77  1  0
 58 36  1  0
 62 40  1  0
 63 41  1  0
 64 42  1  0
 65 43  1  0
 71 51  1  0
 72 52  1  0
 73 53  1  0
 75 55  1  0
M  END
>  <Energy>  (1) 
-2393.612924

$$$$
