78_cs_CONF_0001.xyz
     RDKit          3D

 77 81  0  0  0  0  0  0  0  0999 V2000
    1.0280   -0.5817   -2.8466 C   0  0  0  0  0  3  0  0  0  0  0  0
    2.1139    0.0741   -2.1992 C   0  0  0  0  0  0  0  0  0  0  0  0
    2.7961   -0.5801   -1.1328 C   0  0  0  0  0  3  0  0  0  0  0  0
    2.2739    1.1466   -2.3640 H   0  0  0  0  0  0  0  0  0  0  0  0
    0.6379   -0.4572   -0.6708 Pd  0  0  0  0  0  1  0  0  0  0  0  0
    0.3356   -0.2834    1.6311 P   0  0  0  0  0  0  0  0  0  0  0  0
   -1.6635   -0.4149   -0.2572 P   0  0  0  0  0  0  0  0  0  0  0  0
    1.0547   -1.6824   -2.8734 H   0  0  0  0  0  0  0  0  0  0  0  0
    2.8253   -1.6808   -1.1623 H   0  0  0  0  0  0  0  0  0  0  0  0
   -1.9196    1.1343   -5.4706 C   0  0  0  0  0  0  0  0  0  0  0  0
   -1.8595   -0.2523   -5.2619 C   0  0  0  0  0  0  0  0  0  0  0  0
   -0.8774   -0.7947   -4.4253 C   0  0  0  0  0  0  0  0  0  0  0  0
    0.0631    0.0374   -3.7740 C   0  0  0  0  0  0  0  0  0  0  0  0
   -0.0054    1.4314   -4.0003 C   0  0  0  0  0  0  0  0  0  0  0  0
   -0.9847    1.9713   -4.8403 C   0  0  0  0  0  0  0  0  0  0  0  0
   -2.6863    1.5608   -6.1254 H   0  0  0  0  0  0  0  0  0  0  0  0
   -2.5771   -0.9141   -5.7584 H   0  0  0  0  0  0  0  0  0  0  0  0
   -0.8372   -1.8778   -4.2623 H   0  0  0  0  0  0  0  0  0  0  0  0
    0.7062    2.1046   -3.5108 H   0  0  0  0  0  0  0  0  0  0  0  0
   -1.0221    3.0535   -5.0027 H   0  0  0  0  0  0  0  0  0  0  0  0
    5.6198    1.1275    1.6328 C   0  0  0  0  0  0  0  0  0  0  0  0
    5.3860   -0.2567    1.6031 C   0  0  0  0  0  0  0  0  0  0  0  0
    4.4725   -0.7946    0.6891 C   0  0  0  0  0  0  0  0  0  0  0  0
    3.7682    0.0387   -0.2116 C   0  0  0  0  0  0  0  0  0  0  0  0
    4.0030    1.4322   -0.1588 C   0  0  0  0  0  0  0  0  0  0  0  0
    4.9237    1.9674    0.7483 C   0  0  0  0  0  0  0  0  0  0  0  0
    6.3411    1.5495    2.3403 H   0  0  0  0  0  0  0  0  0  0  0  0
    5.9241   -0.9200    2.2881 H   0  0  0  0  0  0  0  0  0  0  0  0
    4.2960   -1.8761    0.6688 H   0  0  0  0  0  0  0  0  0  0  0  0
    3.4604    2.1085   -0.8273 H   0  0  0  0  0  0  0  0  0  0  0  0
    5.0949    3.0484    0.7696 H   0  0  0  0  0  0  0  0  0  0  0  0
   -1.3839   -0.3131    1.4476 N   0  0  0  0  0  0  0  0  0  0  0  0
   -2.6283    1.0420   -0.7742 C   0  0  0  0  0  0  0  0  0  0  0  0
   -2.7032   -1.8774   -0.5487 C   0  0  0  0  0  0  0  0  0  0  0  0
    0.8235   -1.5936    2.7972 C   0  0  0  0  0  0  0  0  0  0  0  0
    0.7816    1.3054    2.3925 C   0  0  0  0  0  0  0  0  0  0  0  0
   -1.9063    2.1980   -1.1395 C   0  0  0  0  0  0  0  0  0  0  0  0
   -2.7751   -2.9053    0.4137 C   0  0  0  0  0  0  0  0  0  0  0  0
    1.1398   -2.8610    2.2632 C   0  0  0  0  0  0  0  0  0  0  0  0
   -0.1188    2.3907    2.3673 C   0  0  0  0  0  0  0  0  0  0  0  0
   -4.0393    1.0627   -0.7815 C   0  0  0  0  0  0  0  0  0  0  0  0
   -3.3332   -2.0403   -1.8033 C   0  0  0  0  0  0  0  0  0  0  0  0
    0.8561   -1.3893    4.1930 C   0  0  0  0  0  0  0  0  0  0  0  0
    2.0954    1.4891    2.8761 C   0  0  0  0  0  0  0  0  0  0  0  0
   -2.5884    3.3653   -1.5040 C   0  0  0  0  0  0  0  0  0  0  0  0
   -3.4954   -4.0744    0.1325 C   0  0  0  0  0  0  0  0  0  0  0  0
    1.4759   -3.9179    3.1187 C   0  0  0  0  0  0  0  0  0  0  0  0
    0.2843    3.6412    2.8547 C   0  0  0  0  0  0  0  0  0  0  0  0
   -4.7148    2.2333   -1.1506 C   0  0  0  0  0  0  0  0  0  0  0  0
   -4.0467   -3.2144   -2.0750 C   0  0  0  0  0  0  0  0  0  0  0  0
    1.1950   -2.4509    5.0424 C   0  0  0  0  0  0  0  0  0  0  0  0
    2.4890    2.7443    3.3558 C   0  0  0  0  0  0  0  0  0  0  0  0
   -3.9918    3.3818   -1.5118 C   0  0  0  0  0  0  0  0  0  0  0  0
   -4.1314   -4.2300   -1.1087 C   0  0  0  0  0  0  0  0  0  0  0  0
    1.5033   -3.7120    4.5072 C   0  0  0  0  0  0  0  0  0  0  0  0
    1.5856    3.8187    3.3503 C   0  0  0  0  0  0  0  0  0  0  0  0
   -2.0887   -0.1964    2.1840 H   0  0  0  0  0  0  0  0  0  0  0  0
   -0.8101    2.1714   -1.1410 H   0  0  0  0  0  0  0  0  0  0  0  0
   -2.2683   -2.7875    1.3775 H   0  0  0  0  0  0  0  0  0  0  0  0
    1.1241   -3.0098    1.1764 H   0  0  0  0  0  0  0  0  0  0  0  0
   -1.1287    2.2565    1.9654 H   0  0  0  0  0  0  0  0  0  0  0  0
   -4.6063    0.1674   -0.5049 H   0  0  0  0  0  0  0  0  0  0  0  0
   -3.2681   -1.2516   -2.5611 H   0  0  0  0  0  0  0  0  0  0  0  0
    0.6244   -0.4038    4.6113 H   0  0  0  0  0  0  0  0  0  0  0  0
    2.8114    0.6597    2.8702 H   0  0  0  0  0  0  0  0  0  0  0  0
   -2.0255    4.2587   -1.7927 H   0  0  0  0  0  0  0  0  0  0  0  0
   -3.5597   -4.8662    0.8860 H   0  0  0  0  0  0  0  0  0  0  0  0
    1.7234   -4.9001    2.7033 H   0  0  0  0  0  0  0  0  0  0  0  0
   -0.4202    4.4793    2.8459 H   0  0  0  0  0  0  0  0  0  0  0  0
   -5.8095    2.2495   -1.1567 H   0  0  0  0  0  0  0  0  0  0  0  0
   -4.5409   -3.3364   -3.0444 H   0  0  0  0  0  0  0  0  0  0  0  0
    1.2202   -2.2935    6.1256 H   0  0  0  0  0  0  0  0  0  0  0  0
    3.5090    2.8821    3.7286 H   0  0  0  0  0  0  0  0  0  0  0  0
   -4.5258    4.2921   -1.8037 H   0  0  0  0  0  0  0  0  0  0  0  0
   -4.6933   -5.1444   -1.3246 H   0  0  0  0  0  0  0  0  0  0  0  0
    1.7711   -4.5367    5.1758 H   0  0  0  0  0  0  0  0  0  0  0  0
    1.8973    4.7976    3.7290 H   0  0  0  0  0  0  0  0  0  0  0  0
  1  2  1  0
  2  3  1  0
  2  5  1  0
  3 24  1  0
  4  2  1  0
  6 36  1  0
  6 35  1  0
  7 32  1  0
  8  1  1  0
  9  3  1  0
 10 11  2  0
 10 15  1  0
 11 12  1  0
 12 18  1  0
 12 13  2  0
 13  1  1  0
 14 13  1  0
 14 19  1  0
 15 14  2  0
 16 10  1  0
 17 11  1  0
 20 15  1  0
 21 27  1  0
 22 21  1  0
 22 28  1  0
 23 22  2  0
 24 25  2  0
 24 23  1  0
 25 26  1  0
 26 31  1  0
 26 21  2  0
 29 23  1  0
 30 25  1  0
 32  6  1  0
 32 57  1  0
 33  7  1  0
 34  7  1  0
 34 38  1  0
 35 43  1  0
 36 44  1  0
 37 33  2  0
 38 59  1  0
 39 35  2  0
 39 47  1  0
 40 36  2  0
 40 48  1  0
 41 33  1  0
 41 62  1  0
 42 34  2  0
 43 64  1  0
 43 51  2  0
 44 52  2  0
 45 37  1  0
 46 38  2  0
 46 67  1  0
 47 55  2  0
 48 56  2  0
 49 41  2  0
 50 42  1  0
 50 54  2  0
 51 72  1  0
 52 73  1  0
 53 45  2  0
 53 49  1  0
 54 46  1  0
 55 51  1  0
 55 76  1  0
 56 52  1  0
 56 77  1  0
 58 37  1  0
 60 39  1  0
 61 40  1  0
 63 42  1  0
 65 44  1  0
 66 45  1  0
 68 47  1  0
 69 48  1  0
 70 49  1  0
 71 50  1  0
 74 53  1  0
 75 54  1  0
M  END
>  <Energy>  (1) 
-2372.874953

$$$$
78_cs_CONF_0002.xyz
     RDKit          3D

 77 81  0  0  0  0  0  0  0  0999 V2000
    0.8993   -0.4181   -2.8820 C   0  0  0  0  0  3  0  0  0  0  0  0
    2.0003    0.2684   -2.2877 C   0  0  0  0  0  0  0  0  0  0  0  0
    2.8007   -0.3838   -1.3093 C   0  0  0  0  0  3  0  0  0  0  0  0
    2.0950    1.3523   -2.4276 H   0  0  0  0  0  0  0  0  0  0  0  0
    0.6616   -0.3910   -0.6900 Pd  0  0  0  0  0  1  0  0  0  0  0  0
    0.4067   -0.2293    1.6326 P   0  0  0  0  0  0  0  0  0  0  0  0
   -1.6169   -0.3559   -0.2243 P   0  0  0  0  0  0  0  0  0  0  0  0
    0.9950   -1.5089   -2.9991 H   0  0  0  0  0  0  0  0  0  0  0  0
    2.8732   -1.4811   -1.3748 H   0  0  0  0  0  0  0  0  0  0  0  0
   -2.1857    1.3427   -5.3131 C   0  0  0  0  0  0  0  0  0  0  0  0
   -1.9561   -0.0408   -5.3386 C   0  0  0  0  0  0  0  0  0  0  0  0
   -0.9484   -0.6002   -4.5431 C   0  0  0  0  0  0  0  0  0  0  0  0
   -0.1472    0.2127   -3.7096 C   0  0  0  0  0  0  0  0  0  0  0  0
   -0.4071    1.6034   -3.6767 C   0  0  0  0  0  0  0  0  0  0  0  0
   -1.4098    2.1606   -4.4750 C   0  0  0  0  0  0  0  0  0  0  0  0
   -2.9709    1.7824   -5.9366 H   0  0  0  0  0  0  0  0  0  0  0  0
   -2.5586   -0.6865   -5.9860 H   0  0  0  0  0  0  0  0  0  0  0  0
   -0.7684   -1.6811   -4.5726 H   0  0  0  0  0  0  0  0  0  0  0  0
    0.1676    2.2538   -3.0090 H   0  0  0  0  0  0  0  0  0  0  0  0
   -1.5972    3.2381   -4.4344 H   0  0  0  0  0  0  0  0  0  0  0  0
    5.8353    1.3895    1.1753 C   0  0  0  0  0  0  0  0  0  0  0  0
    5.7151   -0.0053    1.0711 C   0  0  0  0  0  0  0  0  0  0  0  0
    4.7261   -0.5653    0.2534 C   0  0  0  0  0  0  0  0  0  0  0  0
    3.8331    0.2561   -0.4736 C   0  0  0  0  0  0  0  0  0  0  0  0
    3.9560    1.6594   -0.3448 C   0  0  0  0  0  0  0  0  0  0  0  0
    4.9508    2.2174    0.4644 C   0  0  0  0  0  0  0  0  0  0  0  0
    6.6137    1.8296    1.8071 H   0  0  0  0  0  0  0  0  0  0  0  0
    6.4005   -0.6589    1.6206 H   0  0  0  0  0  0  0  0  0  0  0  0
    4.6419   -1.6548    0.1696 H   0  0  0  0  0  0  0  0  0  0  0  0
    3.2638    2.3234   -0.8724 H   0  0  0  0  0  0  0  0  0  0  0  0
    5.0314    3.3059    0.5488 H   0  0  0  0  0  0  0  0  0  0  0  0
   -1.3018    0.0027    1.4414 N   0  0  0  0  0  0  0  0  0  0  0  0
   -2.6469    0.9881   -0.8830 C   0  0  0  0  0  0  0  0  0  0  0  0
   -2.6100   -1.8797   -0.3256 C   0  0  0  0  0  0  0  0  0  0  0  0
    0.6686   -1.6622    2.7305 C   0  0  0  0  0  0  0  0  0  0  0  0
    1.0433    1.2225    2.5236 C   0  0  0  0  0  0  0  0  0  0  0  0
   -2.3663    2.3154   -0.4919 C   0  0  0  0  0  0  0  0  0  0  0  0
   -2.0171   -3.0343   -0.8744 C   0  0  0  0  0  0  0  0  0  0  0  0
    0.8544   -1.5255    4.1220 C   0  0  0  0  0  0  0  0  0  0  0  0
    0.2137    2.3100    2.8629 C   0  0  0  0  0  0  0  0  0  0  0  0
   -3.6004    0.7388   -1.8915 C   0  0  0  0  0  0  0  0  0  0  0  0
   -3.9303   -1.9356    0.1714 C   0  0  0  0  0  0  0  0  0  0  0  0
    0.6389   -2.9475    2.1481 C   0  0  0  0  0  0  0  0  0  0  0  0
    2.4254    1.2743    2.8081 C   0  0  0  0  0  0  0  0  0  0  0  0
   -3.0599    3.3780   -1.0828 C   0  0  0  0  0  0  0  0  0  0  0  0
   -2.7354   -4.2372   -0.9232 C   0  0  0  0  0  0  0  0  0  0  0  0
    0.9994   -2.6689    4.9197 C   0  0  0  0  0  0  0  0  0  0  0  0
    0.7597    3.4304    3.5050 C   0  0  0  0  0  0  0  0  0  0  0  0
   -4.2837    1.8096   -2.4823 C   0  0  0  0  0  0  0  0  0  0  0  0
   -4.6403   -3.1417    0.1260 C   0  0  0  0  0  0  0  0  0  0  0  0
    0.7795   -4.0850    2.9517 C   0  0  0  0  0  0  0  0  0  0  0  0
    2.9612    2.3984    3.4479 C   0  0  0  0  0  0  0  0  0  0  0  0
   -4.0193    3.1262   -2.0774 C   0  0  0  0  0  0  0  0  0  0  0  0
   -4.0439   -4.2906   -0.4203 C   0  0  0  0  0  0  0  0  0  0  0  0
    0.9605   -3.9454    4.3374 C   0  0  0  0  0  0  0  0  0  0  0  0
    2.1313    3.4749    3.7989 C   0  0  0  0  0  0  0  0  0  0  0  0
   -1.9961   -0.0029    2.1970 H   0  0  0  0  0  0  0  0  0  0  0  0
   -1.6068    2.5093    0.2731 H   0  0  0  0  0  0  0  0  0  0  0  0
   -0.9944   -2.9816   -1.2671 H   0  0  0  0  0  0  0  0  0  0  0  0
    0.8899   -0.5303    4.5778 H   0  0  0  0  0  0  0  0  0  0  0  0
   -0.8556    2.2768    2.6299 H   0  0  0  0  0  0  0  0  0  0  0  0
   -3.8044   -0.2855   -2.2191 H   0  0  0  0  0  0  0  0  0  0  0  0
   -4.4046   -1.0376    0.5838 H   0  0  0  0  0  0  0  0  0  0  0  0
    0.5047   -3.0500    1.0644 H   0  0  0  0  0  0  0  0  0  0  0  0
    3.0837    0.4445    2.5267 H   0  0  0  0  0  0  0  0  0  0  0  0
   -2.8500    4.4060   -0.7696 H   0  0  0  0  0  0  0  0  0  0  0  0
   -2.2751   -5.1318   -1.3549 H   0  0  0  0  0  0  0  0  0  0  0  0
    1.1441   -2.5625    5.9997 H   0  0  0  0  0  0  0  0  0  0  0  0
    0.1114    4.2695    3.7774 H   0  0  0  0  0  0  0  0  0  0  0  0
   -5.0230    1.6127   -3.2651 H   0  0  0  0  0  0  0  0  0  0  0  0
   -5.6633   -3.1861    0.5134 H   0  0  0  0  0  0  0  0  0  0  0  0
    0.7557   -5.0810    2.4978 H   0  0  0  0  0  0  0  0  0  0  0  0
    4.0337    2.4341    3.6631 H   0  0  0  0  0  0  0  0  0  0  0  0
   -4.5581    3.9594   -2.5402 H   0  0  0  0  0  0  0  0  0  0  0  0
   -4.6050   -5.2300   -0.4570 H   0  0  0  0  0  0  0  0  0  0  0  0
    1.0770   -4.8350    4.9650 H   0  0  0  0  0  0  0  0  0  0  0  0
    2.5547    4.3520    4.2990 H   0  0  0  0  0  0  0  0  0  0  0  0
  1  2  1  0
  2  3  1  0
  2  5  1  0
  3 24  1  0
  4  2  1  0
  6 36  1  0
  6 35  1  0
  7 32  1  0
  8  1  1  0
  9  3  1  0
 10 15  1  0
 11 10  2  0
 11 12  1  0
 12 13  2  0
 13 14  1  0
 13  1  1  0
 14 19  1  0
 15 20  1  0
 15 14  2  0
 16 10  1  0
 17 11  1  0
 18 12  1  0
 21 27  1  0
 22 21  1  0
 22 28  1  0
 23 22  2  0
 24 25  2  0
 24 23  1  0
 25 26  1  0
 26 31  1  0
 26 21  2  0
 29 23  1  0
 30 25  1  0
 32  6  1  0
 32 57  1  0
 33 37  1  0
 33  7  1  0
 34  7  1  0
 34 42  1  0
 35 39  1  0
 36 44  2  0
 36 40  1  0
 37 58  1  0
 38 34  2  0
 39 60  1  0
 39 47  2  0
 40 48  2  0
 41 33  2  0
 42 63  1  0
 43 35  2  0
 43 51  1  0
 44 52  1  0
 45 66  1  0
 45 37  2  0
 46 38  1  0
 46 54  2  0
 47 68  1  0
 48 69  1  0
 48 56  1  0
 49 53  2  0
 49 41  1  0
 50 42  2  0
 50 71  1  0
 51 55  2  0
 52 73  1  0
 52 56  2  0
 53 45  1  0
 54 50  1  0
 55 47  1  0
 55 76  1  0
 56 77  1  0
 59 38  1  0
 61 40  1  0
 62 41  1  0
 64 43  1  0
 65 44  1  0
 67 46  1  0
 70 49  1  0
 72 51  1  0
 74 53  1  0
 75 54  1  0
M  END
>  <Energy>  (2) 
-2372.873772

$$$$
78_cs_CONF_0003.xyz
     RDKit          3D

 77 81  0  0  0  0  0  0  0  0999 V2000
    1.0092   -0.6170   -2.8305 C   0  0  0  0  0  3  0  0  0  0  0  0
    2.0727    0.1086   -2.2215 C   0  0  0  0  0  0  0  0  0  0  0  0
    2.8251   -0.4960   -1.1723 C   0  0  0  0  0  3  0  0  0  0  0  0
    2.1696    1.1852   -2.4088 H   0  0  0  0  0  0  0  0  0  0  0  0
    0.6701   -0.4755   -0.6488 Pd  0  0  0  0  0  1  0  0  0  0  0  0
    0.3573   -0.3054    1.6593 P   0  0  0  0  0  0  0  0  0  0  0  0
   -1.6280   -0.4019   -0.2462 P   0  0  0  0  0  0  0  0  0  0  0  0
    1.1072   -1.7140   -2.8558 H   0  0  0  0  0  0  0  0  0  0  0  0
    2.9196   -1.5930   -1.1960 H   0  0  0  0  0  0  0  0  0  0  0  0
   -2.1105    0.8854   -5.3839 C   0  0  0  0  0  0  0  0  0  0  0  0
   -1.8348   -0.4892   -5.3189 C   0  0  0  0  0  0  0  0  0  0  0  0
   -0.8006   -0.9603   -4.5010 C   0  0  0  0  0  0  0  0  0  0  0  0
   -0.0179   -0.0664   -3.7339 C   0  0  0  0  0  0  0  0  0  0  0  0
   -0.3022    1.3166   -3.8174 C   0  0  0  0  0  0  0  0  0  0  0  0
   -1.3373    1.7851   -4.6317 C   0  0  0  0  0  0  0  0  0  0  0  0
   -2.9220    1.2552   -6.0189 H   0  0  0  0  0  0  0  0  0  0  0  0
   -2.4263   -1.1968   -5.9095 H   0  0  0  0  0  0  0  0  0  0  0  0
   -0.5941   -2.0352   -4.4477 H   0  0  0  0  0  0  0  0  0  0  0  0
    0.2739    2.0315   -3.2211 H   0  0  0  0  0  0  0  0  0  0  0  0
   -1.5506    2.8580   -4.6720 H   0  0  0  0  0  0  0  0  0  0  0  0
    5.6688    1.4218    1.4300 C   0  0  0  0  0  0  0  0  0  0  0  0
    5.5664    0.0224    1.3822 C   0  0  0  0  0  0  0  0  0  0  0  0
    4.6415   -0.5849    0.5244 C   0  0  0  0  0  0  0  0  0  0  0  0
    3.7954    0.1925   -0.3008 C   0  0  0  0  0  0  0  0  0  0  0  0
    3.8986    1.6014   -0.2281 C   0  0  0  0  0  0  0  0  0  0  0  0
    4.8301    2.2066    0.6217 C   0  0  0  0  0  0  0  0  0  0  0  0
    6.3981    1.8986    2.0931 H   0  0  0  0  0  0  0  0  0  0  0  0
    6.2164   -0.5981    2.0077 H   0  0  0  0  0  0  0  0  0  0  0  0
    4.5709   -1.6780    0.4863 H   0  0  0  0  0  0  0  0  0  0  0  0
    3.2407    2.2335   -0.8334 H   0  0  0  0  0  0  0  0  0  0  0  0
    4.8968    3.2986    0.6604 H   0  0  0  0  0  0  0  0  0  0  0  0
   -1.3612   -0.2688    1.4551 N   0  0  0  0  0  0  0  0  0  0  0  0
   -2.5359    1.0835   -0.7921 C   0  0  0  0  0  0  0  0  0  0  0  0
   -2.6883   -1.8471   -0.5406 C   0  0  0  0  0  0  0  0  0  0  0  0
    0.7570   -1.6520    2.8193 C   0  0  0  0  0  0  0  0  0  0  0  0
    0.8478    1.2527    2.4577 C   0  0  0  0  0  0  0  0  0  0  0  0
   -1.7923    2.2819   -0.8726 C   0  0  0  0  0  0  0  0  0  0  0  0
   -2.9246   -2.7903    0.4797 C   0  0  0  0  0  0  0  0  0  0  0  0
    0.8952   -2.9509    2.2841 C   0  0  0  0  0  0  0  0  0  0  0  0
   -0.0480    2.3379    2.5475 C   0  0  0  0  0  0  0  0  0  0  0  0
   -3.9056    1.0861   -1.1231 C   0  0  0  0  0  0  0  0  0  0  0  0
   -3.1690   -2.0866   -1.8483 C   0  0  0  0  0  0  0  0  0  0  0  0
    0.8818   -1.4461    4.2092 C   0  0  0  0  0  0  0  0  0  0  0  0
    2.1876    1.4078    2.8762 C   0  0  0  0  0  0  0  0  0  0  0  0
   -2.4147    3.4698   -1.2719 C   0  0  0  0  0  0  0  0  0  0  0  0
   -3.6640   -3.9483    0.2007 C   0  0  0  0  0  0  0  0  0  0  0  0
    1.1453   -4.0355    3.1338 C   0  0  0  0  0  0  0  0  0  0  0  0
    0.3869    3.5582    3.0828 C   0  0  0  0  0  0  0  0  0  0  0  0
   -4.5194    2.2773   -1.5359 C   0  0  0  0  0  0  0  0  0  0  0  0
   -3.9044   -3.2478   -2.1160 C   0  0  0  0  0  0  0  0  0  0  0  0
    1.1364   -2.5362    5.0525 C   0  0  0  0  0  0  0  0  0  0  0  0
    2.6120    2.6318    3.4070 C   0  0  0  0  0  0  0  0  0  0  0  0
   -3.7777    3.4661   -1.6107 C   0  0  0  0  0  0  0  0  0  0  0  0
   -4.1561   -4.1769   -1.0932 C   0  0  0  0  0  0  0  0  0  0  0  0
    1.2666   -3.8274    4.5173 C   0  0  0  0  0  0  0  0  0  0  0  0
    1.7140    3.7055    3.5150 C   0  0  0  0  0  0  0  0  0  0  0  0
   -2.0700   -0.1383    2.1851 H   0  0  0  0  0  0  0  0  0  0  0  0
   -0.7238    2.2745   -0.6231 H   0  0  0  0  0  0  0  0  0  0  0  0
   -2.5263   -2.6208    1.4856 H   0  0  0  0  0  0  0  0  0  0  0  0
    0.8070   -3.1043    1.2014 H   0  0  0  0  0  0  0  0  0  0  0  0
   -1.0798    2.2288    2.1978 H   0  0  0  0  0  0  0  0  0  0  0  0
   -4.4921    0.1640   -1.0594 H   0  0  0  0  0  0  0  0  0  0  0  0
   -2.9671   -1.3706   -2.6531 H   0  0  0  0  0  0  0  0  0  0  0  0
    0.7850   -0.4388    4.6282 H   0  0  0  0  0  0  0  0  0  0  0  0
    2.9003    0.5808    2.7810 H   0  0  0  0  0  0  0  0  0  0  0  0
   -1.8352    4.3969   -1.3305 H   0  0  0  0  0  0  0  0  0  0  0  0
   -3.8550   -4.6744    0.9975 H   0  0  0  0  0  0  0  0  0  0  0  0
    1.2538   -5.0422    2.7174 H   0  0  0  0  0  0  0  0  0  0  0  0
   -0.3139    4.3958    3.1623 H   0  0  0  0  0  0  0  0  0  0  0  0
   -5.5832    2.2769   -1.7946 H   0  0  0  0  0  0  0  0  0  0  0  0
   -4.2813   -3.4288   -3.1279 H   0  0  0  0  0  0  0  0  0  0  0  0
    1.2339   -2.3769    6.1313 H   0  0  0  0  0  0  0  0  0  0  0  0
    3.6519    2.7469    3.7283 H   0  0  0  0  0  0  0  0  0  0  0  0
   -4.2631    4.3929   -1.9340 H   0  0  0  0  0  0  0  0  0  0  0  0
   -4.7332   -5.0824   -1.3068 H   0  0  0  0  0  0  0  0  0  0  0  0
    1.4685   -4.6747    5.1808 H   0  0  0  0  0  0  0  0  0  0  0  0
    2.0503    4.6603    3.9321 H   0  0  0  0  0  0  0  0  0  0  0  0
  1  2  1  0
  2  3  1  0
  2  5  1  0
  3 24  1  0
  4  2  1  0
  6 36  1  0
  6 35  1  0
  7 32  1  0
  8  1  1  0
  9  3  1  0
 10 11  2  0
 10 15  1  0
 11 12  1  0
 12 18  1  0
 12 13  2  0
 13  1  1  0
 14 13  1  0
 14 19  1  0
 15 14  2  0
 16 10  1  0
 17 11  1  0
 20 15  1  0
 21 27  1  0
 22 21  1  0
 22 28  1  0
 23 22  2  0
 24 25  2  0
 24 23  1  0
 25 26  1  0
 26 31  1  0
 26 21  2  0
 29 23  1  0
 30 25  1  0
 32  6  1  0
 32 57  1  0
 33  7  1  0
 34  7  1  0
 34 38  1  0
 35 43  1  0
 36 40  2  0
 36 44  1  0
 37 33  1  0
 37 58  1  0
 38 59  1  0
 39 35  2  0
 39 47  1  0
 40 48  1  0
 41 62  1  0
 41 33  2  0
 42 34  2  0
 43 64  1  0
 43 51  2  0
 44 52  2  0
 45 37  2  0
 46 38  2  0
 46 67  1  0
 47 55  2  0
 48 69  1  0
 48 56  2  0
 49 41  1  0
 50 42  1  0
 50 54  2  0
 51 72  1  0
 52 56  1  0
 52 73  1  0
 53 49  2  0
 53 45  1  0
 54 46  1  0
 55 51  1  0
 55 76  1  0
 56 77  1  0
 60 39  1  0
 61 40  1  0
 63 42  1  0
 65 44  1  0
 66 45  1  0
 68 47  1  0
 70 49  1  0
 71 50  1  0
 74 53  1  0
 75 54  1  0
M  END
>  <Energy>  (3) 
-2372.874678

$$$$
78_cs_CONF_0004.xyz
     RDKit          3D

 77 81  0  0  0  0  0  0  0  0999 V2000
    0.9017   -0.3829   -2.9484 C   0  0  0  0  0  3  0  0  0  0  0  0
    1.9679    0.3210   -2.3175 C   0  0  0  0  0  0  0  0  0  0  0  0
    2.7733   -0.3219   -1.3328 C   0  0  0  0  0  3  0  0  0  0  0  0
    2.0320    1.4102   -2.4325 H   0  0  0  0  0  0  0  0  0  0  0  0
    0.6421   -0.4145   -0.7482 Pd  0  0  0  0  0  1  0  0  0  0  0  0
    0.4679   -0.2391    1.5705 P   0  0  0  0  0  0  0  0  0  0  0  0
   -1.6252   -0.3218   -0.1978 P   0  0  0  0  0  0  0  0  0  0  0  0
    1.0200   -1.4712   -3.0703 H   0  0  0  0  0  0  0  0  0  0  0  0
    2.9223   -1.4084   -1.4357 H   0  0  0  0  0  0  0  0  0  0  0  0
   -2.1068    1.3549   -5.4898 C   0  0  0  0  0  0  0  0  0  0  0  0
   -1.8616   -0.0261   -5.5115 C   0  0  0  0  0  0  0  0  0  0  0  0
   -0.8840   -0.5793   -4.6748 C   0  0  0  0  0  0  0  0  0  0  0  0
   -0.1291    0.2375   -3.8024 C   0  0  0  0  0  0  0  0  0  0  0  0
   -0.4076    1.6247   -3.7725 C   0  0  0  0  0  0  0  0  0  0  0  0
   -1.3794    2.1759   -4.6120 C   0  0  0  0  0  0  0  0  0  0  0  0
   -2.8661    1.7899   -6.1477 H   0  0  0  0  0  0  0  0  0  0  0  0
   -2.4263   -0.6744   -6.1896 H   0  0  0  0  0  0  0  0  0  0  0  0
   -0.6883   -1.6573   -4.7049 H   0  0  0  0  0  0  0  0  0  0  0  0
    0.1302    2.2777   -3.0771 H   0  0  0  0  0  0  0  0  0  0  0  0
   -1.5804    3.2513   -4.5741 H   0  0  0  0  0  0  0  0  0  0  0  0
    5.6206    1.6105    1.2527 C   0  0  0  0  0  0  0  0  0  0  0  0
    5.6747    0.2257    1.0368 C   0  0  0  0  0  0  0  0  0  0  0  0
    4.7401   -0.3910    0.1955 C   0  0  0  0  0  0  0  0  0  0  0  0
    3.7354    0.3650   -0.4500 C   0  0  0  0  0  0  0  0  0  0  0  0
    3.6784    1.7572   -0.2014 C   0  0  0  0  0  0  0  0  0  0  0  0
    4.6151    2.3717    0.6337 C   0  0  0  0  0  0  0  0  0  0  0  0
    6.3531    2.0951    1.9064 H   0  0  0  0  0  0  0  0  0  0  0  0
    6.4527   -0.3761    1.5180 H   0  0  0  0  0  0  0  0  0  0  0  0
    4.7935   -1.4720    0.0222 H   0  0  0  0  0  0  0  0  0  0  0  0
    2.8860    2.3637   -0.6527 H   0  0  0  0  0  0  0  0  0  0  0  0
    4.5539    3.4494    0.8143 H   0  0  0  0  0  0  0  0  0  0  0  0
   -1.2110    0.1829    1.4131 N   0  0  0  0  0  0  0  0  0  0  0  0
   -2.6971    0.9637   -0.9031 C   0  0  0  0  0  0  0  0  0  0  0  0
   -2.6424   -1.8319   -0.0989 C   0  0  0  0  0  0  0  0  0  0  0  0
    0.6093   -1.7017    2.6488 C   0  0  0  0  0  0  0  0  0  0  0  0
    1.2834    1.1269    2.4479 C   0  0  0  0  0  0  0  0  0  0  0  0
   -2.6692    2.2837   -0.4092 C   0  0  0  0  0  0  0  0  0  0  0  0
   -2.0168   -3.0753   -0.3219 C   0  0  0  0  0  0  0  0  0  0  0  0
    0.3452   -1.6286    4.0339 C   0  0  0  0  0  0  0  0  0  0  0  0
    2.4557    0.8812    3.1936 C   0  0  0  0  0  0  0  0  0  0  0  0
   -3.4617    0.6572   -2.0494 C   0  0  0  0  0  0  0  0  0  0  0  0
   -4.0099   -1.7854    0.2488 C   0  0  0  0  0  0  0  0  0  0  0  0
    0.9352   -2.9403    2.0611 C   0  0  0  0  0  0  0  0  0  0  0  0
    0.8373    2.4515    2.2570 C   0  0  0  0  0  0  0  0  0  0  0  0
   -3.4210    3.2820   -1.0429 C   0  0  0  0  0  0  0  0  0  0  0  0
   -2.7478   -4.2633   -0.1895 C   0  0  0  0  0  0  0  0  0  0  0  0
    0.3979   -2.7900    4.8144 C   0  0  0  0  0  0  0  0  0  0  0  0
    3.1566    1.9524    3.7612 C   0  0  0  0  0  0  0  0  0  0  0  0
   -4.2046    1.6624   -2.6792 C   0  0  0  0  0  0  0  0  0  0  0  0
   -4.7346   -2.9765    0.3814 C   0  0  0  0  0  0  0  0  0  0  0  0
    0.9904   -4.0986    2.8482 C   0  0  0  0  0  0  0  0  0  0  0  0
    1.5399    3.5156    2.8358 C   0  0  0  0  0  0  0  0  0  0  0  0
   -4.1877    2.9730   -2.1774 C   0  0  0  0  0  0  0  0  0  0  0  0
   -4.1048   -4.2132    0.1640 C   0  0  0  0  0  0  0  0  0  0  0  0
    0.7187   -4.0232    4.2225 C   0  0  0  0  0  0  0  0  0  0  0  0
    2.6990    3.2672    3.5883 C   0  0  0  0  0  0  0  0  0  0  0  0
   -1.8737    0.2533    2.1947 H   0  0  0  0  0  0  0  0  0  0  0  0
   -2.0686    2.5203    0.4748 H   0  0  0  0  0  0  0  0  0  0  0  0
   -0.9577   -3.1044   -0.6040 H   0  0  0  0  0  0  0  0  0  0  0  0
    0.1087   -0.6657    4.5010 H   0  0  0  0  0  0  0  0  0  0  0  0
    2.8220   -0.1418    3.3277 H   0  0  0  0  0  0  0  0  0  0  0  0
   -3.4724   -0.3612   -2.4523 H   0  0  0  0  0  0  0  0  0  0  0  0
   -4.5063   -0.8212    0.4056 H   0  0  0  0  0  0  0  0  0  0  0  0
    1.1508   -2.9881    0.9871 H   0  0  0  0  0  0  0  0  0  0  0  0
   -0.0606    2.6414    1.6604 H   0  0  0  0  0  0  0  0  0  0  0  0
   -3.4097    4.3034   -0.6488 H   0  0  0  0  0  0  0  0  0  0  0  0
   -2.2608   -5.2276   -0.3671 H   0  0  0  0  0  0  0  0  0  0  0  0
    0.1924   -2.7340    5.8884 H   0  0  0  0  0  0  0  0  0  0  0  0
    4.0663    1.7577    4.3377 H   0  0  0  0  0  0  0  0  0  0  0  0
   -4.7935    1.4209   -3.5694 H   0  0  0  0  0  0  0  0  0  0  0  0
   -5.7951   -2.9409    0.6512 H   0  0  0  0  0  0  0  0  0  0  0  0
    1.2485   -5.0590    2.3905 H   0  0  0  0  0  0  0  0  0  0  0  0
    1.1829    4.5416    2.6991 H   0  0  0  0  0  0  0  0  0  0  0  0
   -4.7723    3.7557   -2.6717 H   0  0  0  0  0  0  0  0  0  0  0  0
   -4.6773   -5.1411    0.2648 H   0  0  0  0  0  0  0  0  0  0  0  0
    0.7621   -4.9276    4.8381 H   0  0  0  0  0  0  0  0  0  0  0  0
    3.2483    4.1011    4.0374 H   0  0  0  0  0  0  0  0  0  0  0  0
  1  2  1  0
  2  3  1  0
  2  5  1  0
  3 24  1  0
  4  2  1  0
  6 36  1  0
  6 35  1  0
  7 34  1  0
  7 32  1  0
  8  1  1  0
  9  3  1  0
 10 15  1  0
 11 10  2  0
 11 12  1  0
 12 13  2  0
 13 14  1  0
 13  1  1  0
 14 19  1  0
 15 20  1  0
 15 14  2  0
 16 10  1  0
 17 11  1  0
 18 12  1  0
 21 27  1  0
 22 21  1  0
 22 28  1  0
 23 22  2  0
 24 25  2  0
 24 23  1  0
 25 26  1  0
 26 31  1  0
 26 21  2  0
 29 23  1  0
 30 25  1  0
 32  6  1  0
 32 57  1  0
 33 37  1  0
 33  7  1  0
 34 42  1  0
 35 39  1  0
 36 40  1  0
 37 58  1  0
 38 46  1  0
 38 34  2  0
 39 60  1  0
 39 47  2  0
 40 61  1  0
 40 48  2  0
 41 33  2  0
 42 50  2  0
 42 63  1  0
 43 35  2  0
 43 51  1  0
 44 36  2  0
 44 52  1  0
 45 66  1  0
 45 37  2  0
 46 54  2  0
 47 68  1  0
 48 69  1  0
 49 53  2  0
 49 41  1  0
 50 71  1  0
 51 55  2  0
 52 56  2  0
 53 45  1  0
 54 75  1  0
 54 50  1  0
 55 47  1  0
 55 76  1  0
 56 48  1  0
 56 77  1  0
 59 38  1  0
 62 41  1  0
 64 43  1  0
 65 44  1  0
 67 46  1  0
 70 49  1  0
 72 51  1  0
 73 52  1  0
 74 53  1  0
M  END
>  <Energy>  (4) 
-2372.873408

$$$$
78_cs_CONF_0005.xyz
     RDKit          3D

 77 81  0  0  0  0  0  0  0  0999 V2000
    1.0409   -0.3319   -2.9065 C   0  0  0  0  0  3  0  0  0  0  0  0
    2.0661    0.3823   -2.2213 C   0  0  0  0  0  0  0  0  0  0  0  0
    2.8393   -0.2589   -1.2102 C   0  0  0  0  0  3  0  0  0  0  0  0
    2.1156    1.4738   -2.3204 H   0  0  0  0  0  0  0  0  0  0  0  0
    0.6857   -0.3959   -0.7211 Pd  0  0  0  0  0  1  0  0  0  0  0  0
    0.4003   -0.2518    1.5892 P   0  0  0  0  0  0  0  0  0  0  0  0
   -1.6052   -0.3409   -0.2768 P   0  0  0  0  0  0  0  0  0  0  0  0
    1.1840   -1.4163   -3.0366 H   0  0  0  0  0  0  0  0  0  0  0  0
    3.0114   -1.3414   -1.3190 H   0  0  0  0  0  0  0  0  0  0  0  0
   -1.8930    1.3849   -5.5474 C   0  0  0  0  0  0  0  0  0  0  0  0
   -1.6226    0.0088   -5.5752 C   0  0  0  0  0  0  0  0  0  0  0  0
   -0.6696   -0.5377   -4.7063 C   0  0  0  0  0  0  0  0  0  0  0  0
    0.0353    0.2813   -3.7951 C   0  0  0  0  0  0  0  0  0  0  0  0
   -0.2686    1.6631   -3.7606 C   0  0  0  0  0  0  0  0  0  0  0  0
   -1.2159    2.2076   -4.6319 C   0  0  0  0  0  0  0  0  0  0  0  0
   -2.6332    1.8148   -6.2301 H   0  0  0  0  0  0  0  0  0  0  0  0
   -2.1483   -0.6409   -6.2828 H   0  0  0  0  0  0  0  0  0  0  0  0
   -0.4541   -1.6118   -4.7406 H   0  0  0  0  0  0  0  0  0  0  0  0
    0.2298    2.3170   -3.0372 H   0  0  0  0  0  0  0  0  0  0  0  0
   -1.4373    3.2787   -4.5896 H   0  0  0  0  0  0  0  0  0  0  0  0
    5.5450    1.6925    1.5098 C   0  0  0  0  0  0  0  0  0  0  0  0
    5.6301    0.3109    1.2839 C   0  0  0  0  0  0  0  0  0  0  0  0
    4.7406   -0.3124    0.3995 C   0  0  0  0  0  0  0  0  0  0  0  0
    3.7512    0.4338   -0.2799 C   0  0  0  0  0  0  0  0  0  0  0  0
    3.6610    1.8223   -0.0207 C   0  0  0  0  0  0  0  0  0  0  0  0
    4.5530    2.4435    0.8575 C   0  0  0  0  0  0  0  0  0  0  0  0
    6.2425    2.1824    2.1970 H   0  0  0  0  0  0  0  0  0  0  0  0
    6.3975   -0.2832    1.7910 H   0  0  0  0  0  0  0  0  0  0  0  0
    4.8190   -1.3906    0.2184 H   0  0  0  0  0  0  0  0  0  0  0  0
    2.8780    2.4205   -0.4986 H   0  0  0  0  0  0  0  0  0  0  0  0
    4.4671    3.5184    1.0451 H   0  0  0  0  0  0  0  0  0  0  0  0
   -1.2738    0.1549    1.3561 N   0  0  0  0  0  0  0  0  0  0  0  0
   -2.6627    0.9350   -1.0204 C   0  0  0  0  0  0  0  0  0  0  0  0
   -2.6025   -1.8669   -0.2395 C   0  0  0  0  0  0  0  0  0  0  0  0
    0.5049   -1.7262    2.6559 C   0  0  0  0  0  0  0  0  0  0  0  0
    1.1586    1.1102    2.5220 C   0  0  0  0  0  0  0  0  0  0  0  0
   -2.6483    2.2588   -0.5357 C   0  0  0  0  0  0  0  0  0  0  0  0
   -1.9558   -3.0959   -0.4803 C   0  0  0  0  0  0  0  0  0  0  0  0
    0.8416   -2.9600    2.0640 C   0  0  0  0  0  0  0  0  0  0  0  0
    2.3156    0.8685    3.2928 C   0  0  0  0  0  0  0  0  0  0  0  0
   -3.3957    0.6200   -2.1847 C   0  0  0  0  0  0  0  0  0  0  0  0
   -3.9779   -1.8468    0.0787 C   0  0  0  0  0  0  0  0  0  0  0  0
    0.2008   -1.6670    4.0334 C   0  0  0  0  0  0  0  0  0  0  0  0
    0.6892    2.4298    2.3549 C   0  0  0  0  0  0  0  0  0  0  0  0
   -3.3829    3.2521   -1.1965 C   0  0  0  0  0  0  0  0  0  0  0  0
   -2.6738   -4.2962   -0.3949 C   0  0  0  0  0  0  0  0  0  0  0  0
    0.8669   -4.1274    2.8390 C   0  0  0  0  0  0  0  0  0  0  0  0
    2.9780    1.9379    3.9077 C   0  0  0  0  0  0  0  0  0  0  0  0
   -4.1214    1.6205   -2.8417 C   0  0  0  0  0  0  0  0  0  0  0  0
   -4.6894   -3.0499    0.1649 C   0  0  0  0  0  0  0  0  0  0  0  0
    0.2247   -2.8374    4.8019 C   0  0  0  0  0  0  0  0  0  0  0  0
    1.3537    3.4921    2.9804 C   0  0  0  0  0  0  0  0  0  0  0  0
   -4.1185    2.9346   -2.3491 C   0  0  0  0  0  0  0  0  0  0  0  0
   -4.0386   -4.2725   -0.0700 C   0  0  0  0  0  0  0  0  0  0  0  0
    0.5557   -4.0658    4.2056 C   0  0  0  0  0  0  0  0  0  0  0  0
    2.4975    3.2474    3.7570 C   0  0  0  0  0  0  0  0  0  0  0  0
   -1.9736    0.2073    2.1062 H   0  0  0  0  0  0  0  0  0  0  0  0
   -2.0710    2.5022    0.3618 H   0  0  0  0  0  0  0  0  0  0  0  0
   -0.8905   -3.1041   -0.7398 H   0  0  0  0  0  0  0  0  0  0  0  0
    1.0888   -2.9970    0.9964 H   0  0  0  0  0  0  0  0  0  0  0  0
    2.6999   -0.1499    3.4096 H   0  0  0  0  0  0  0  0  0  0  0  0
   -3.3959   -0.4014   -2.5798 H   0  0  0  0  0  0  0  0  0  0  0  0
   -4.4906   -0.8933    0.2485 H   0  0  0  0  0  0  0  0  0  0  0  0
   -0.0445   -0.7081    4.5039 H   0  0  0  0  0  0  0  0  0  0  0  0
   -0.1974    2.6169    1.7410 H   0  0  0  0  0  0  0  0  0  0  0  0
   -3.3824    4.2764   -0.8097 H   0  0  0  0  0  0  0  0  0  0  0  0
   -2.1704   -5.2493   -0.5864 H   0  0  0  0  0  0  0  0  0  0  0  0
    1.1329   -5.0841    2.3780 H   0  0  0  0  0  0  0  0  0  0  0  0
    3.8760    1.7463    4.5032 H   0  0  0  0  0  0  0  0  0  0  0  0
   -4.6861    1.3725   -3.7457 H   0  0  0  0  0  0  0  0  0  0  0  0
   -5.7560   -3.0348    0.4119 H   0  0  0  0  0  0  0  0  0  0  0  0
   -0.0114   -2.7922    5.8700 H   0  0  0  0  0  0  0  0  0  0  0  0
    0.9784    4.5138    2.8617 H   0  0  0  0  0  0  0  0  0  0  0  0
   -4.6896    3.7134   -2.8648 H   0  0  0  0  0  0  0  0  0  0  0  0
   -4.6008   -5.2099   -0.0056 H   0  0  0  0  0  0  0  0  0  0  0  0
    0.5763   -4.9773    4.8119 H   0  0  0  0  0  0  0  0  0  0  0  0
    3.0167    4.0800    4.2427 H   0  0  0  0  0  0  0  0  0  0  0  0
  1  2  1  0
  2  3  1  0
  2  5  1  0
  3 24  1  0
  4  2  1  0
  6 36  1  0
  6 35  1  0
  7 34  1  0
  7 32  1  0
  8  1  1  0
  9  3  1  0
 10 15  1  0
 11 10  2  0
 11 12  1  0
 12 13  2  0
 13 14  1  0
 13  1  1  0
 14 19  1  0
 15 20  1  0
 15 14  2  0
 16 10  1  0
 17 11  1  0
 18 12  1  0
 21 27  1  0
 22 21  1  0
 22 28  1  0
 23 22  2  0
 24 25  2  0
 24 23  1  0
 25 26  1  0
 26 31  1  0
 26 21  2  0
 29 23  1  0
 30 25  1  0
 32  6  1  0
 32 57  1  0
 33 37  1  0
 33  7  1  0
 34 42  1  0
 35 43  1  0
 36 40  1  0
 37 58  1  0
 38 46  1  0
 38 34  2  0
 39 35  2  0
 39 47  1  0
 40 61  1  0
 40 48  2  0
 41 33  2  0
 42 50  2  0
 42 63  1  0
 43 64  1  0
 43 51  2  0
 44 36  2  0
 44 52  1  0
 45 66  1  0
 45 37  2  0
 46 54  2  0
 47 55  2  0
 48 69  1  0
 49 53  2  0
 49 41  1  0
 50 71  1  0
 51 72  1  0
 52 56  2  0
 53 45  1  0
 54 75  1  0
 54 50  1  0
 55 51  1  0
 55 76  1  0
 56 48  1  0
 56 77  1  0
 59 38  1  0
 60 39  1  0
 62 41  1  0
 65 44  1  0
 67 46  1  0
 68 47  1  0
 70 49  1  0
 73 52  1  0
 74 53  1  0
M  END
>  <Energy>  (5) 
-2372.873394

$$$$
78_cs_CONF_0006.xyz
     RDKit          3D

 77 81  0  0  0  0  0  0  0  0999 V2000
    2.6811    0.8093   -1.1996 C   0  0  0  0  0  3  0  0  0  0  0  0
    2.0075    0.1754   -2.2871 C   0  0  0  0  0  0  0  0  0  0  0  0
    0.8718    0.7945   -2.8772 C   0  0  0  0  0  3  0  0  0  0  0  0
    2.2352   -0.8720   -2.5200 H   0  0  0  0  0  0  0  0  0  0  0  0
    0.5554    0.5219   -0.6893 Pd  0  0  0  0  0  1  0  0  0  0  0  0
   -1.6817    0.0701   -0.1644 P   0  0  0  0  0  0  0  0  0  0  0  0
    0.4069    0.2449    1.6155 P   0  0  0  0  0  0  0  0  0  0  0  0
    2.6867    1.9106   -1.1882 H   0  0  0  0  0  0  0  0  0  0  0  0
    0.8200    1.8936   -2.8236 H   0  0  0  0  0  0  0  0  0  0  0  0
    5.6753   -0.9944    1.3125 C   0  0  0  0  0  0  0  0  0  0  0  0
    4.7926   -1.8112    0.5864 C   0  0  0  0  0  0  0  0  0  0  0  0
    3.8119   -1.2398   -0.2287 C   0  0  0  0  0  0  0  0  0  0  0  0
    3.7008    0.1661   -0.3481 C   0  0  0  0  0  0  0  0  0  0  0  0
    4.5821    0.9752    0.4039 C   0  0  0  0  0  0  0  0  0  0  0  0
    5.5614    0.4007    1.2242 C   0  0  0  0  0  0  0  0  0  0  0  0
    6.4422   -1.4452    1.9507 H   0  0  0  0  0  0  0  0  0  0  0  0
    4.8611   -2.9005    0.6679 H   0  0  0  0  0  0  0  0  0  0  0  0
    3.1136   -1.8925   -0.7633 H   0  0  0  0  0  0  0  0  0  0  0  0
    4.5035    2.0662    0.3322 H   0  0  0  0  0  0  0  0  0  0  0  0
    6.2424    1.0451    1.7898 H   0  0  0  0  0  0  0  0  0  0  0  0
   -1.8408   -0.9030   -5.7555 C   0  0  0  0  0  0  0  0  0  0  0  0
   -1.8745    0.4681   -5.4553 C   0  0  0  0  0  0  0  0  0  0  0  0
   -0.9792    1.0040   -4.5221 C   0  0  0  0  0  0  0  0  0  0  0  0
   -0.0352    0.1810   -3.8643 C   0  0  0  0  0  0  0  0  0  0  0  0
   -0.0237   -1.2007   -4.1663 C   0  0  0  0  0  0  0  0  0  0  0  0
   -0.9118   -1.7329   -5.1065 C   0  0  0  0  0  0  0  0  0  0  0  0
   -2.5338   -1.3227   -6.4919 H   0  0  0  0  0  0  0  0  0  0  0  0
   -2.5939    1.1234   -5.9573 H   0  0  0  0  0  0  0  0  0  0  0  0
   -1.0055    2.0761   -4.2962 H   0  0  0  0  0  0  0  0  0  0  0  0
    0.6790   -1.8697   -3.6593 H   0  0  0  0  0  0  0  0  0  0  0  0
   -0.8849   -2.8044   -5.3293 H   0  0  0  0  0  0  0  0  0  0  0  0
   -1.2424   -0.2682    1.4794 N   0  0  0  0  0  0  0  0  0  0  0  0
    1.3297   -1.0976    2.4198 C   0  0  0  0  0  0  0  0  0  0  0  0
    0.4903    1.6823    2.7314 C   0  0  0  0  0  0  0  0  0  0  0  0
   -2.9531    1.3780   -0.1637 C   0  0  0  0  0  0  0  0  0  0  0  0
   -2.4895   -1.4241   -0.8146 C   0  0  0  0  0  0  0  0  0  0  0  0
    2.4528   -0.8148    3.2245 C   0  0  0  0  0  0  0  0  0  0  0  0
    0.7898    2.9450    2.1816 C   0  0  0  0  0  0  0  0  0  0  0  0
   -4.3335    1.0882   -0.1727 C   0  0  0  0  0  0  0  0  0  0  0  0
   -2.9292   -1.4098   -2.1563 C   0  0  0  0  0  0  0  0  0  0  0  0
    1.0141   -2.4351    2.0965 C   0  0  0  0  0  0  0  0  0  0  0  0
    0.2177    1.5632    4.1116 C   0  0  0  0  0  0  0  0  0  0  0  0
   -2.5164    2.7191   -0.1157 C   0  0  0  0  0  0  0  0  0  0  0  0
   -2.6195   -2.5966   -0.0438 C   0  0  0  0  0  0  0  0  0  0  0  0
    3.2348   -1.8657    3.7209 C   0  0  0  0  0  0  0  0  0  0  0  0
    0.8122    4.0811    3.0023 C   0  0  0  0  0  0  0  0  0  0  0  0
   -5.2639    2.1353   -0.1236 C   0  0  0  0  0  0  0  0  0  0  0  0
   -3.5116   -2.5568   -2.7087 C   0  0  0  0  0  0  0  0  0  0  0  0
    1.7970   -3.4787    2.6042 C   0  0  0  0  0  0  0  0  0  0  0  0
    0.2366    2.7027    4.9255 C   0  0  0  0  0  0  0  0  0  0  0  0
   -3.4515    3.7597   -0.0636 C   0  0  0  0  0  0  0  0  0  0  0  0
   -3.2064   -3.7394   -0.6055 C   0  0  0  0  0  0  0  0  0  0  0  0
    2.9068   -3.1952    3.4171 C   0  0  0  0  0  0  0  0  0  0  0  0
    0.5329    3.9595    4.3718 C   0  0  0  0  0  0  0  0  0  0  0  0
   -4.8250    3.4674   -0.0677 C   0  0  0  0  0  0  0  0  0  0  0  0
   -3.6528   -3.7203   -1.9358 C   0  0  0  0  0  0  0  0  0  0  0  0
   -1.8945   -0.3998    2.2607 H   0  0  0  0  0  0  0  0  0  0  0  0
    2.7202    0.2207    3.4577 H   0  0  0  0  0  0  0  0  0  0  0  0
    1.0112    3.0288    1.1107 H   0  0  0  0  0  0  0  0  0  0  0  0
   -4.6779    0.0496   -0.2234 H   0  0  0  0  0  0  0  0  0  0  0  0
   -2.8123   -0.5101   -2.7713 H   0  0  0  0  0  0  0  0  0  0  0  0
    0.1576   -2.6517    1.4493 H   0  0  0  0  0  0  0  0  0  0  0  0
    0.0010    0.5823    4.5499 H   0  0  0  0  0  0  0  0  0  0  0  0
   -1.4423    2.9408   -0.1201 H   0  0  0  0  0  0  0  0  0  0  0  0
   -2.2676   -2.6126    0.9928 H   0  0  0  0  0  0  0  0  0  0  0  0
    4.1061   -1.6428    4.3446 H   0  0  0  0  0  0  0  0  0  0  0  0
    1.0500    5.0603    2.5744 H   0  0  0  0  0  0  0  0  0  0  0  0
   -6.3354    1.9103   -0.1298 H   0  0  0  0  0  0  0  0  0  0  0  0
   -3.8474   -2.5404   -3.7502 H   0  0  0  0  0  0  0  0  0  0  0  0
    1.5429   -4.5161    2.3633 H   0  0  0  0  0  0  0  0  0  0  0  0
    0.0248    2.6109    5.9957 H   0  0  0  0  0  0  0  0  0  0  0  0
   -3.1107    4.7995   -0.0271 H   0  0  0  0  0  0  0  0  0  0  0  0
   -3.3158   -4.6461   -0.0015 H   0  0  0  0  0  0  0  0  0  0  0  0
    3.5191   -4.0132    3.8104 H   0  0  0  0  0  0  0  0  0  0  0  0
    0.5507    4.8465    5.0135 H   0  0  0  0  0  0  0  0  0  0  0  0
   -5.5563    4.2816   -0.0328 H   0  0  0  0  0  0  0  0  0  0  0  0
   -4.1089   -4.6150   -2.3719 H   0  0  0  0  0  0  0  0  0  0  0  0
  1  8  1  0
  1 13  1  0
  2  1  1  0
  2  5  1  0
  3  9  1  0
  3  2  1  0
  4  2  1  0
  6 35  1  0
  6 32  1  0
  7 33  1  0
  7 34  1  0
 10 16  1  0
 11 17  1  0
 11 10  2  0
 12 11  1  0
 13 12  2  0
 13 14  1  0
 14 15  2  0
 15 10  1  0
 15 20  1  0
 18 12  1  0
 19 14  1  0
 21 22  2  0
 21 26  1  0
 22 23  1  0
 23 29  1  0
 23 24  2  0
 24  3  1  0
 25 24  1  0
 25 30  1  0
 26 25  2  0
 27 21  1  0
 28 22  1  0
 31 26  1  0
 32  7  1  0
 32 57  1  0
 33 37  1  0
 34 42  1  0
 35 43  1  0
 36  6  1  0
 36 44  1  0
 37 58  1  0
 37 45  2  0
 38 34  2  0
 38 46  1  0
 39 35  2  0
 39 47  1  0
 40 36  2  0
 41 33  2  0
 41 49  1  0
 42 63  1  0
 42 50  2  0
 43 51  2  0
 44 65  1  0
 45 66  1  0
 46 54  2  0
 47 55  2  0
 48 40  1  0
 48 56  2  0
 49 53  2  0
 50 71  1  0
 51 72  1  0
 52 44  2  0
 52 73  1  0
 53 45  1  0
 53 74  1  0
 54 50  1  0
 54 75  1  0
 55 51  1  0
 55 76  1  0
 56 52  1  0
 59 38  1  0
 60 39  1  0
 61 40  1  0
 62 41  1  0
 64 43  1  0
 67 46  1  0
 68 47  1  0
 69 48  1  0
 70 49  1  0
 77 56  1  0
M  END
>  <Energy>  (6) 
-2372.873822

$$$$
