ferrocene027_allyl_cs_CONF_0001.xyz
     RDKit          3D

104108  0  0  1  0  0  0  0  0999 V2000
   -1.2928   -2.1310   -2.5317 C   0  0  0  0  0  3  0  0  0  0  0  0
    0.1296   -2.2045   -2.5321 C   0  0  1  0  0  0  0  0  0  0  0  0
    0.8609   -2.7718   -1.4661 C   0  0  0  0  0  3  0  0  0  0  0  0
    0.6786   -1.7044   -3.3390 H   0  0  0  0  0  0  0  0  0  0  0  0
   -0.3937   -0.9657   -0.7862 Pd  0  0  0  0  0  1  0  0  0  0  0  0
    1.2817   -0.0666    0.5638 P   0  0  0  0  0  0  0  0  0  0  0  0
   -2.1710    0.3429    0.0847 P   0  0  0  0  0  0  0  0  0  0  0  0
   -1.8382   -2.9046   -1.9729 H   0  0  0  0  0  0  0  0  0  0  0  0
    0.3116   -3.4228   -0.7688 H   0  0  0  0  0  0  0  0  0  0  0  0
   -3.4697   -0.3765   -5.8134 C   0  0  0  0  0  0  0  0  0  0  0  0
   -2.1888    0.1001   -5.4878 C   0  0  0  0  0  0  0  0  0  0  0  0
   -1.4780   -0.4609   -4.4226 C   0  0  0  0  0  0  0  0  0  0  0  0
   -2.0270   -1.5187   -3.6585 C   0  0  0  0  0  0  0  0  0  0  0  0
   -3.3091   -1.9986   -4.0102 C   0  0  0  0  0  0  0  0  0  0  0  0
   -4.0245   -1.4301   -5.0721 C   0  0  0  0  0  0  0  0  0  0  0  0
   -4.0289    0.0687   -6.6424 H   0  0  0  0  0  0  0  0  0  0  0  0
   -1.7475    0.9214   -6.0620 H   0  0  0  0  0  0  0  0  0  0  0  0
   -0.4936   -0.0563   -4.1626 H   0  0  0  0  0  0  0  0  0  0  0  0
   -3.7439   -2.8338   -3.4500 H   0  0  0  0  0  0  0  0  0  0  0  0
   -5.0165   -1.8175   -5.3264 H   0  0  0  0  0  0  0  0  0  0  0  0
    5.1110   -3.4223   -1.3857 C   0  0  0  0  0  0  0  0  0  0  0  0
    4.2979   -3.8707   -0.3343 C   0  0  0  0  0  0  0  0  0  0  0  0
    2.9187   -3.6361   -0.3669 C   0  0  0  0  0  0  0  0  0  0  0  0
    2.3231   -2.9373   -1.4429 C   0  0  0  0  0  0  0  0  0  0  0  0
    3.1598   -2.4785   -2.4876 C   0  0  0  0  0  0  0  0  0  0  0  0
    4.5345   -2.7266   -2.4613 C   0  0  0  0  0  0  0  0  0  0  0  0
    6.1885   -3.6160   -1.3706 H   0  0  0  0  0  0  0  0  0  0  0  0
    4.7359   -4.4172    0.5073 H   0  0  0  0  0  0  0  0  0  0  0  0
    2.2886   -4.0078    0.4469 H   0  0  0  0  0  0  0  0  0  0  0  0
    2.7370   -1.9307   -3.3344 H   0  0  0  0  0  0  0  0  0  0  0  0
    5.1627   -2.3713   -3.2840 H   0  0  0  0  0  0  0  0  0  0  0  0
    0.9796    2.8081    2.7883 Fe  0  0  0  0  0  2  0  0  0  0  0  0
    0.8776    1.6258    1.1177 C   0  0  0  0  0  0  0  0  0  0  0  0
   -0.4526    2.0811    1.4959 C   0  0  0  0  0  0  0  0  0  0  0  0
   -0.4198    3.5218    1.5113 C   0  0  2  0  0  0  0  0  0  0  0  0
    0.8889    3.9610    1.1208 C   0  0  0  0  0  3  0  0  0  0  0  0
    1.6955    2.8012    0.8910 C   0  0  0  0  0  0  0  0  0  0  0  0
    2.1834    3.9232    4.0009 C   0  0  0  0  0  0  0  0  0  0  0  0
    0.8113    4.0499    4.4013 C   0  0  0  0  0  3  0  0  0  0  0  0
    0.3257    2.7435    4.7369 C   0  0  0  0  0  0  0  0  0  0  0  0
    1.3924    1.8058    4.5361 C   0  0  0  0  0  0  0  0  0  0  0  0
    2.5432    2.5380    4.0840 C   0  0  0  0  0  0  0  0  0  0  0  0
    2.7709    0.2288   -0.4742 C   0  0  0  0  0  0  0  0  0  0  0  0
    4.0671   -0.2077   -0.1493 C   0  0  0  0  0  0  0  0  0  0  0  0
    5.1445    0.1075   -0.9916 C   0  0  0  0  0  0  0  0  0  0  0  0
    4.9373    0.8418   -2.1665 C   0  0  0  0  0  0  0  0  0  0  0  0
    3.6392    1.2523   -2.5127 C   0  0  0  0  0  0  0  0  0  0  0  0
    2.5613    0.9462   -1.6744 C   0  0  0  0  0  0  0  0  0  0  0  0
    1.8126   -1.0788    1.9961 C   0  0  0  0  0  0  0  0  0  0  0  0
    1.1468   -2.2911    2.2640 C   0  0  0  0  0  0  0  0  0  0  0  0
    1.5236   -3.0793    3.3604 C   0  0  0  0  0  0  0  0  0  0  0  0
    2.5752   -2.6652    4.1919 C   0  0  0  0  0  0  0  0  0  0  0  0
    3.2415   -1.4565    3.9324 C   0  0  0  0  0  0  0  0  0  0  0  0
    2.8574   -0.6621    2.8440 C   0  0  0  0  0  0  0  0  0  0  0  0
   -1.6633    1.2047    1.7253 C   0  0  2  0  0  0  0  0  0  0  0  0
   -1.2481    4.1721    1.7991 H   0  0  0  0  0  0  0  0  0  0  0  0
    1.2261    4.9974    1.0609 H   0  0  0  0  0  0  0  0  0  0  0  0
    2.7432    2.7924    0.5878 H   0  0  0  0  0  0  0  0  0  0  0  0
    2.8314    4.7353    3.6661 H   0  0  0  0  0  0  0  0  0  0  0  0
    0.2325    4.9751    4.4247 H   0  0  0  0  0  0  0  0  0  0  0  0
   -0.6837    2.5120    5.0817 H   0  0  0  0  0  0  0  0  0  0  0  0
    1.3401    0.7278    4.6940 H   0  0  0  0  0  0  0  0  0  0  0  0
    3.5261    2.1266    3.8510 H   0  0  0  0  0  0  0  0  0  0  0  0
    4.2435   -0.8130    0.7432 H   0  0  0  0  0  0  0  0  0  0  0  0
    1.5502    1.2764   -1.9396 H   0  0  0  0  0  0  0  0  0  0  0  0
    0.3231   -2.6069    1.6128 H   0  0  0  0  0  0  0  0  0  0  0  0
    3.3594    0.2903    2.6545 H   0  0  0  0  0  0  0  0  0  0  0  0
    6.1491   -0.2396   -0.7295 H   0  0  0  0  0  0  0  0  0  0  0  0
    3.4674    1.8164   -3.4355 H   0  0  0  0  0  0  0  0  0  0  0  0
    0.9961   -4.0165    3.5656 H   0  0  0  0  0  0  0  0  0  0  0  0
    4.0570   -1.1276    4.5849 H   0  0  0  0  0  0  0  0  0  0  0  0
   -3.6635   -0.7791    0.5749 C   0  0  1  0  0  0  0  0  0  0  0  0
   -2.6772    1.8134   -1.0560 C   0  0  1  0  0  0  0  0  0  0  0  0
   -4.4627   -1.2258   -0.6690 C   0  0  0  0  0  0  0  0  0  0  0  0
   -5.0773   -2.1009   -0.3898 H   0  0  0  0  0  0  0  0  0  0  0  0
   -5.1464   -0.4479   -1.0343 H   0  0  0  0  0  0  0  0  0  0  0  0
   -3.8037   -1.5249   -1.4966 H   0  0  0  0  0  0  0  0  0  0  0  0
   -1.3568    2.3150   -1.6930 C   0  0  0  0  0  0  0  0  0  0  0  0
   -1.5819    3.1840   -2.3384 H   0  0  0  0  0  0  0  0  0  0  0  0
   -0.6113    2.6305   -0.9477 H   0  0  0  0  0  0  0  0  0  0  0  0
   -0.9131    1.5266   -2.3259 H   0  0  0  0  0  0  0  0  0  0  0  0
   -3.0628   -2.0724    1.1874 C   0  0  0  0  0  0  0  0  0  0  0  0
   -3.8925   -2.7329    1.4995 H   0  0  0  0  0  0  0  0  0  0  0  0
   -2.4637   -2.6143    0.4333 H   0  0  0  0  0  0  0  0  0  0  0  0
   -2.4247   -1.8990    2.0638 H   0  0  0  0  0  0  0  0  0  0  0  0
   -4.6311   -0.0866    1.5581 C   0  0  0  0  0  0  0  0  0  0  0  0
   -5.4572   -0.7825    1.7942 H   0  0  0  0  0  0  0  0  0  0  0  0
   -4.1585    0.1958    2.5118 H   0  0  0  0  0  0  0  0  0  0  0  0
   -5.0798    0.8164    1.1117 H   0  0  0  0  0  0  0  0  0  0  0  0
   -3.6050    1.3578   -2.2025 C   0  0  0  0  0  0  0  0  0  0  0  0
   -3.6016    2.1448   -2.9780 H   0  0  0  0  0  0  0  0  0  0  0  0
   -3.2684    0.4267   -2.6790 H   0  0  0  0  0  0  0  0  0  0  0  0
   -4.6450    1.2339   -1.8664 H   0  0  0  0  0  0  0  0  0  0  0  0
   -3.3785    2.9574   -0.2949 C   0  0  0  0  0  0  0  0  0  0  0  0
   -3.6826    3.7281   -1.0267 H   0  0  0  0  0  0  0  0  0  0  0  0
   -4.2915    2.6135    0.2195 H   0  0  0  0  0  0  0  0  0  0  0  0
   -2.7212    3.4464    0.4374 H   0  0  0  0  0  0  0  0  0  0  0  0
    5.7821    1.0848   -2.8192 H   0  0  0  0  0  0  0  0  0  0  0  0
    2.8726   -3.2813    5.0467 H   0  0  0  0  0  0  0  0  0  0  0  0
   -2.5118    1.8618    1.9809 H   0  0  0  0  0  0  0  0  0  0  0  0
   -1.4367    0.2315    2.8965 C   0  0  0  0  0  0  0  0  0  0  0  0
   -1.0517    0.8121    3.7462 H   0  0  0  0  0  0  0  0  0  0  0  0
   -2.3615   -0.2698    3.2144 H   0  0  0  0  0  0  0  0  0  0  0  0
   -0.6847   -0.5361    2.6594 H   0  0  0  0  0  0  0  0  0  0  0  0
  1  8  1  0
  2  1  1  0
  2  3  1  0
  2  5  1  0
  3 24  1  0
  3  9  1  0
  2  4  1  6
  6 33  1  0
  6 49  1  0
 72  7  1  6
  7 55  1  0
 10 11  2  0
 10 15  1  0
 11 12  1  0
 12 18  1  0
 12 13  2  0
 13  1  1  0
 14 13  1  0
 14 19  1  0
 15 14  2  0
 16 10  1  0
 17 11  1  0
 20 15  1  0
 21 27  1  0
 21 22  1  0
 22 28  1  0
 23 22  2  0
 23 29  1  0
 24 23  1  0
 25 26  1  0
 25 24  2  0
 26 21  2  0
 30 25  1  0
 31 26  1  0
 33 34  2  0
 34 35  1  0
 34 55  1  0
 35 56  1  1
 35 32  1  0
 36 35  1  0
 37 58  1  0
 37 33  1  0
 37 36  1  0
 37 32  1  0
 38 42  2  0
 38 39  1  0
 39 60  1  0
 39 40  1  0
 40 61  1  0
 41 62  1  0
 41 40  2  0
 42 41  1  0
 43 44  1  0
 43  6  1  0
 44 64  1  0
 45 68  1  0
 45 44  2  0
 46 45  1  0
 47 46  2  0
 47 48  1  0
 48 43  2  0
 49 50  2  0
 49 54  1  0
 50 51  1  0
 51 70  1  0
 51 52  2  0
 52 99  1  0
 53 52  1  0
 53 71  1  0
 54 53  2  0
 55100  1  1
 55101  1  0
 57 36  1  0
 59 38  1  0
 63 42  1  0
 65 48  1  0
 66 50  1  0
 67 54  1  0
 69 47  1  0
 72 82  1  0
 72 86  1  0
 73 94  1  0
 73  7  1  1
 74 75  1  0
 74 72  1  0
 76 74  1  0
 77 74  1  0
 78 73  1  0
 78 80  1  0
 79 78  1  0
 81 78  1  0
 82 83  1  0
 82 85  1  0
 84 82  1  0
 86 87  1  0
 86 88  1  0
 89 86  1  0
 90 93  1  0
 90 73  1  0
 91 90  1  0
 92 90  1  0
 94 96  1  0
 94 97  1  0
 95 94  1  0
 98 46  1  0
101103  1  0
101102  1  0
104101  1  0
M  END
>  <Energy>  (1) 
-3898.4364560000004

$$$$
ferrocene027_allyl_cs_CONF_0002.xyz
     RDKit          3D

104107  0  0  1  0  0  0  0  0999 V2000
   -1.3988   -2.5938   -1.8739 C   0  0  0  0  0  3  0  0  0  0  0  0
    0.0186   -2.6672   -1.9688 C   0  0  1  0  0  0  0  0  0  0  0  0
    0.7994   -2.9258   -0.8187 C   0  0  0  0  0  3  0  0  0  0  0  0
    0.5141   -2.4378   -2.9209 H   0  0  0  0  0  0  0  0  0  0  0  0
   -0.4018   -0.9752   -0.6115 Pd  0  0  0  0  0  1  0  0  0  0  0  0
    1.3501    0.1563    0.4809 P   0  0  0  0  0  0  0  0  0  0  0  0
   -2.0351    0.7119   -0.2318 P   0  0  0  0  0  0  0  0  0  0  0  0
   -1.8524   -3.1585   -1.0466 H   0  0  0  0  0  0  0  0  0  0  0  0
    0.2763   -3.3765    0.0391 H   0  0  0  0  0  0  0  0  0  0  0  0
   -4.0276   -1.9794   -5.2283 C   0  0  0  0  0  0  0  0  0  0  0  0
   -2.7544   -1.3843   -5.2220 C   0  0  0  0  0  0  0  0  0  0  0  0
   -1.8910   -1.5787   -4.1395 C   0  0  0  0  0  0  0  0  0  0  0  0
   -2.2819   -2.3676   -3.0334 C   0  0  0  0  0  0  0  0  0  0  0  0
   -3.5604   -2.9713   -3.0608 C   0  0  0  0  0  0  0  0  0  0  0  0
   -4.4237   -2.7798   -4.1467 C   0  0  0  0  0  0  0  0  0  0  0  0
   -4.7034   -1.8232   -6.0752 H   0  0  0  0  0  0  0  0  0  0  0  0
   -2.4369   -0.7617   -6.0649 H   0  0  0  0  0  0  0  0  0  0  0  0
   -0.9083   -1.0952   -4.1411 H   0  0  0  0  0  0  0  0  0  0  0  0
   -3.8762   -3.6012   -2.2216 H   0  0  0  0  0  0  0  0  0  0  0  0
   -5.4086   -3.2582   -4.1488 H   0  0  0  0  0  0  0  0  0  0  0  0
    5.0526   -3.5291   -0.6685 C   0  0  0  0  0  0  0  0  0  0  0  0
    4.2107   -4.0810    0.3084 C   0  0  0  0  0  0  0  0  0  0  0  0
    2.8310   -3.8574    0.2524 C   0  0  0  0  0  0  0  0  0  0  0  0
    2.2609   -3.0936   -0.7917 C   0  0  0  0  0  0  0  0  0  0  0  0
    3.1205   -2.5575   -1.7782 C   0  0  0  0  0  0  0  0  0  0  0  0
    4.5012   -2.7650   -1.7107 C   0  0  0  0  0  0  0  0  0  0  0  0
    6.1338   -3.6956   -0.6219 H   0  0  0  0  0  0  0  0  0  0  0  0
    4.6300   -4.6798    1.1230 H   0  0  0  0  0  0  0  0  0  0  0  0
    2.1805   -4.2772    1.0269 H   0  0  0  0  0  0  0  0  0  0  0  0
    2.7118   -1.9654   -2.6008 H   0  0  0  0  0  0  0  0  0  0  0  0
    5.1509   -2.3320   -2.4783 H   0  0  0  0  0  0  0  0  0  0  0  0
    0.8284    2.2569    3.3349 Fe  0  0  0  0  0  1  0  0  0  0  0  0
    0.8942    1.6811    1.3829 C   0  0  0  0  0  0  0  0  0  0  0  0
   -0.4609    2.0925    1.7265 C   0  0  0  0  0  0  0  0  0  0  0  0
   -0.3870    3.4472    2.2069 C   0  0  0  0  0  0  0  0  0  0  0  0
    0.9713    3.8937    2.1369 C   0  0  0  0  0  0  0  0  0  0  0  0
    1.7648    2.8121    1.6399 C   0  0  0  0  0  0  0  0  0  0  0  0
    0.6821    0.7816    4.7594 C   0  0  0  0  0  0  0  0  0  0  0  0
    2.0560    1.1236    4.5226 C   0  0  0  0  0  0  0  0  0  0  0  0
    2.2170    2.5184    4.8092 C   0  0  0  0  0  0  0  0  0  0  0  0
    0.9433    3.0403    5.2173 C   0  0  0  0  0  0  0  0  0  0  0  0
   -0.0060    1.9655    5.1876 C   0  0  0  0  0  3  0  0  0  0  0  0
    2.5278    0.7331   -0.8202 C   0  0  0  0  0  0  0  0  0  0  0  0
    2.1310    0.5781   -2.1654 C   0  0  0  0  0  0  0  0  0  0  0  0
    2.9449    1.0198   -3.2161 C   0  0  0  0  0  0  0  0  0  0  0  0
    4.1804    1.6211   -2.9377 C   0  0  0  0  0  0  0  0  0  0  0  0
    4.5860    1.7898   -1.6053 C   0  0  0  0  0  0  0  0  0  0  0  0
    3.7651    1.3588   -0.5541 C   0  0  0  0  0  0  0  0  0  0  0  0
    2.2789   -0.8940    1.6766 C   0  0  0  0  0  0  0  0  0  0  0  0
    3.6807   -0.9742    1.7617 C   0  0  0  0  0  0  0  0  0  0  0  0
    4.2841   -1.7646    2.7521 C   0  0  0  0  0  0  0  0  0  0  0  0
    3.5005   -2.4953    3.6553 C   0  0  0  0  0  0  0  0  0  0  0  0
    2.1011   -2.4560    3.5479 C   0  0  0  0  0  0  0  0  0  0  0  0
    1.4977   -1.6677    2.5609 C   0  0  0  0  0  0  0  0  0  0  0  0
   -1.7722    1.3568    1.5425 C   0  0  2  0  0  0  0  0  0  0  0  0
   -1.2379    4.0306    2.5654 H   0  0  0  0  0  0  0  0  0  0  0  0
    1.3459    4.8697    2.4503 H   0  0  0  0  0  0  0  0  0  0  0  0
    2.8428    2.8434    1.4903 H   0  0  0  0  0  0  0  0  0  0  0  0
    0.2464   -0.2100    4.6418 H   0  0  0  0  0  0  0  0  0  0  0  0
    2.8337    0.4432    4.1723 H   0  0  0  0  0  0  0  0  0  0  0  0
    3.1388    3.0935    4.7028 H   0  0  0  0  0  0  0  0  0  0  0  0
    0.7294    4.0786    5.4779 H   0  0  0  0  0  0  0  0  0  0  0  0
   -1.0645    2.0441    5.4432 H   0  0  0  0  0  0  0  0  0  0  0  0
    1.1642    0.1035   -2.3794 H   0  0  0  0  0  0  0  0  0  0  0  0
    4.1024    1.5169    0.4734 H   0  0  0  0  0  0  0  0  0  0  0  0
    4.3147   -0.4528    1.0426 H   0  0  0  0  0  0  0  0  0  0  0  0
    0.4064   -1.6537    2.4709 H   0  0  0  0  0  0  0  0  0  0  0  0
    2.6133    0.8923   -4.2519 H   0  0  0  0  0  0  0  0  0  0  0  0
    5.5455    2.2663   -1.3796 H   0  0  0  0  0  0  0  0  0  0  0  0
    5.3763   -1.8186    2.8029 H   0  0  0  0  0  0  0  0  0  0  0  0
    1.4791   -3.0435    4.2312 H   0  0  0  0  0  0  0  0  0  0  0  0
   -3.8939    0.1396   -0.2016 C   0  0  1  0  0  0  0  0  0  0  0  0
   -1.8661    2.2245   -1.4194 C   0  0  1  0  0  0  0  0  0  0  0  0
   -4.5056    0.1471   -1.6209 C   0  0  0  0  0  0  0  0  0  0  0  0
   -5.4929   -0.3471   -1.5704 H   0  0  0  0  0  0  0  0  0  0  0  0
   -4.6698    1.1636   -2.0099 H   0  0  0  0  0  0  0  0  0  0  0  0
   -3.8948   -0.4193   -2.3394 H   0  0  0  0  0  0  0  0  0  0  0  0
   -2.9690    3.2799   -1.1949 C   0  0  0  0  0  0  0  0  0  0  0  0
   -2.7704    4.1414   -1.8586 H   0  0  0  0  0  0  0  0  0  0  0  0
   -3.9779    2.9101   -1.4323 H   0  0  0  0  0  0  0  0  0  0  0  0
   -2.9645    3.6587   -0.1579 H   0  0  0  0  0  0  0  0  0  0  0  0
   -3.9371   -1.3262    0.2930 C   0  0  0  0  0  0  0  0  0  0  0  0
   -4.9943   -1.6321    0.3965 H   0  0  0  0  0  0  0  0  0  0  0  0
   -3.4651   -1.9954   -0.4383 H   0  0  0  0  0  0  0  0  0  0  0  0
   -3.4467   -1.4805    1.2651 H   0  0  0  0  0  0  0  0  0  0  0  0
   -4.7703    1.0195    0.7214 C   0  0  0  0  0  0  0  0  0  0  0  0
   -5.8188    0.6837    0.6215 H   0  0  0  0  0  0  0  0  0  0  0  0
   -4.5031    0.9225    1.7856 H   0  0  0  0  0  0  0  0  0  0  0  0
   -4.7397    2.0856    0.4497 H   0  0  0  0  0  0  0  0  0  0  0  0
   -0.5004    2.9248   -1.2369 C   0  0  0  0  0  0  0  0  0  0  0  0
   -0.3774    3.6387   -2.0721 H   0  0  0  0  0  0  0  0  0  0  0  0
   -0.4304    3.4918   -0.2994 H   0  0  0  0  0  0  0  0  0  0  0  0
    0.3420    2.2195   -1.2858 H   0  0  0  0  0  0  0  0  0  0  0  0
   -1.8834    1.6837   -2.8683 C   0  0  0  0  0  0  0  0  0  0  0  0
   -2.8054    1.1567   -3.1437 H   0  0  0  0  0  0  0  0  0  0  0  0
   -1.7593    2.5347   -3.5628 H   0  0  0  0  0  0  0  0  0  0  0  0
   -1.0381    0.9929   -3.0262 H   0  0  0  0  0  0  0  0  0  0  0  0
    4.8229    1.9647   -3.7548 H   0  0  0  0  0  0  0  0  0  0  0  0
    3.9762   -3.1083    4.4275 H   0  0  0  0  0  0  0  0  0  0  0  0
   -2.5681    2.1041    1.7032 H   0  0  0  0  0  0  0  0  0  0  0  0
   -1.9559    0.2310    2.5779 C   0  0  0  0  0  0  0  0  0  0  0  0
   -1.7269    0.6372    3.5732 H   0  0  0  0  0  0  0  0  0  0  0  0
   -2.9813   -0.1646    2.5953 H   0  0  0  0  0  0  0  0  0  0  0  0
   -1.2627   -0.6039    2.3814 H   0  0  0  0  0  0  0  0  0  0  0  0
  1  8  1  0
  2  1  1  0
  2  3  1  0
  2  5  1  0
  3 24  1  0
  3  9  1  0
  2  4  1  6
  6 33  1  0
  6 49  1  0
 72  7  1  6
  7 55  1  0
 10 11  2  0
 10 15  1  0
 11 12  1  0
 12 13  2  0
 13  1  1  0
 14 13  1  0
 14 19  1  0
 15 14  2  0
 16 10  1  0
 17 11  1  0
 18 12  1  0
 20 15  1  0
 21 27  1  0
 21 22  1  0
 22 28  1  0
 23 22  2  0
 23 29  1  0
 24 23  1  0
 25 26  1  0
 25 24  2  0
 26 21  2  0
 30 25  1  0
 31 26  1  0
 33 37  1  0
 33 34  2  0
 34 35  1  0
 35 56  1  0
 36 35  2  0
 36 57  1  0
 37 58  1  0
 37 36  1  0
 37 32  1  0
 38 42  1  0
 39 38  2  0
 39 40  1  0
 40 41  2  0
 41 62  1  0
 42 41  1  0
 42 63  1  0
 43 48  1  0
 43  6  1  0
 44 43  2  0
 45 46  2  0
 45 44  1  0
 46 47  1  0
 47 69  1  0
 47 48  2  0
 48 65  1  0
 49 50  2  0
 49 54  1  0
 50 51  1  0
 51 70  1  0
 51 52  2  0
 52 99  1  0
 53 52  1  0
 53 71  1  0
 54 53  2  0
 55100  1  1
 55 34  1  0
 55101  1  0
 59 38  1  0
 60 39  1  0
 61 40  1  0
 64 44  1  0
 66 50  1  0
 67 54  1  0
 68 45  1  0
 72 82  1  0
 72 86  1  0
 73 90  1  0
 73 78  1  0
 73  7  1  1
 74 75  1  0
 74 72  1  0
 76 74  1  0
 77 74  1  0
 78 81  1  0
 79 78  1  0
 80 78  1  0
 82 83  1  0
 82 85  1  0
 84 82  1  0
 86 88  1  0
 87 86  1  0
 89 86  1  0
 90 92  1  0
 91 90  1  0
 93 90  1  0
 94 73  1  0
 95 94  1  0
 96 94  1  0
 97 94  1  0
 98 46  1  0
101103  1  0
101102  1  0
104101  1  0
M  END
>  <Energy>  (2) 
-3898.430103

$$$$
ferrocene027_allyl_cs_CONF_0003.xyz
     RDKit          3D

104108  0  0  1  0  0  0  0  0999 V2000
   -1.2932   -2.1595   -2.5062 C   0  0  0  0  0  3  0  0  0  0  0  0
    0.1295   -2.2262   -2.5126 C   0  0  1  0  0  0  0  0  0  0  0  0
    0.8687   -2.7794   -1.4446 C   0  0  0  0  0  3  0  0  0  0  0  0
    0.6722   -1.7315   -3.3271 H   0  0  0  0  0  0  0  0  0  0  0  0
   -0.3924   -0.9722   -0.7761 Pd  0  0  0  0  0  1  0  0  0  0  0  0
    1.2843   -0.0534    0.5588 P   0  0  0  0  0  0  0  0  0  0  0  0
   -2.1719    0.3350    0.0907 P   0  0  0  0  0  0  0  0  0  0  0  0
   -1.8321   -2.9302   -1.9371 H   0  0  0  0  0  0  0  0  0  0  0  0
    0.3258   -3.4255   -0.7379 H   0  0  0  0  0  0  0  0  0  0  0  0
   -3.4937   -0.4511   -5.7963 C   0  0  0  0  0  0  0  0  0  0  0  0
   -2.2147    0.0368   -5.4804 C   0  0  0  0  0  0  0  0  0  0  0  0
   -1.4963   -0.5091   -4.4124 C   0  0  0  0  0  0  0  0  0  0  0  0
   -2.0357   -1.5626   -3.6358 C   0  0  0  0  0  0  0  0  0  0  0  0
   -3.3162   -2.0538   -3.9776 C   0  0  0  0  0  0  0  0  0  0  0  0
   -4.0392   -1.5006   -5.0423 C   0  0  0  0  0  0  0  0  0  0  0  0
   -4.0588   -0.0178   -6.6277 H   0  0  0  0  0  0  0  0  0  0  0  0
   -1.7808    0.8551   -6.0645 H   0  0  0  0  0  0  0  0  0  0  0  0
   -0.5134   -0.0957   -4.1603 H   0  0  0  0  0  0  0  0  0  0  0  0
   -3.7435   -2.8860   -3.4072 H   0  0  0  0  0  0  0  0  0  0  0  0
   -5.0297   -1.8967   -5.2889 H   0  0  0  0  0  0  0  0  0  0  0  0
    5.1220   -3.4097   -1.3785 C   0  0  0  0  0  0  0  0  0  0  0  0
    4.3162   -3.8503   -0.3182 C   0  0  0  0  0  0  0  0  0  0  0  0
    2.9358   -3.6221   -0.3463 C   0  0  0  0  0  0  0  0  0  0  0  0
    2.3317   -2.9376   -1.4268 C   0  0  0  0  0  0  0  0  0  0  0  0
    3.1611   -2.4861   -2.4805 C   0  0  0  0  0  0  0  0  0  0  0  0
    4.5370   -2.7280   -2.4585 C   0  0  0  0  0  0  0  0  0  0  0  0
    6.2004   -3.5987   -1.3669 H   0  0  0  0  0  0  0  0  0  0  0  0
    4.7609   -4.3857    0.5270 H   0  0  0  0  0  0  0  0  0  0  0  0
    2.3114   -3.9877    0.4747 H   0  0  0  0  0  0  0  0  0  0  0  0
    2.7316   -1.9492   -3.3308 H   0  0  0  0  0  0  0  0  0  0  0  0
    5.1596   -2.3787   -3.2881 H   0  0  0  0  0  0  0  0  0  0  0  0
    0.9786    2.8358    2.7620 Fe  0  0  0  0  0  2  0  0  0  0  0  0
    0.8739    1.6414    1.1004 C   0  0  0  0  0  0  0  0  0  0  0  0
   -0.4568    2.0931    1.4811 C   0  0  0  0  0  0  0  0  0  0  0  0
   -0.4307    3.5340    1.4863 C   0  0  2  0  0  0  0  0  0  0  0  0
    0.8741    3.9767    1.0869 C   0  0  0  0  0  3  0  0  0  0  0  0
    1.6852    2.8190    0.8616 C   0  0  0  0  0  0  0  0  0  0  0  0
    2.1861    3.9631    3.9594 C   0  0  0  0  0  0  0  0  0  0  0  0
    0.8162    4.0889    4.3671 C   0  0  0  0  0  3  0  0  0  0  0  0
    0.3363    2.7836    4.7152 C   0  0  0  0  0  0  0  0  0  0  0  0
    1.4043    1.8475    4.5147 C   0  0  0  0  0  0  0  0  0  0  0  0
    2.5503    2.5795    4.0505 C   0  0  0  0  0  0  0  0  0  0  0  0
    2.7676    0.2403   -0.4879 C   0  0  0  0  0  0  0  0  0  0  0  0
    4.0666   -0.1907   -0.1671 C   0  0  0  0  0  0  0  0  0  0  0  0
    5.1388    0.1218   -1.0170 C   0  0  0  0  0  0  0  0  0  0  0  0
    4.9236    0.8480   -2.1955 C   0  0  0  0  0  0  0  0  0  0  0  0
    3.6227    1.2529   -2.5376 C   0  0  0  0  0  0  0  0  0  0  0  0
    2.5499    0.9494   -1.6917 C   0  0  0  0  0  0  0  0  0  0  0  0
    1.8252   -1.0523    1.9967 C   0  0  0  0  0  0  0  0  0  0  0  0
    1.1620   -2.2628    2.2787 C   0  0  0  0  0  0  0  0  0  0  0  0
    1.5457   -3.0414    3.3796 C   0  0  0  0  0  0  0  0  0  0  0  0
    2.6018   -2.6195    4.2013 C   0  0  0  0  0  0  0  0  0  0  0  0
    3.2658   -1.4126    3.9277 C   0  0  0  0  0  0  0  0  0  0  0  0
    2.8747   -0.6278    2.8349 C   0  0  0  0  0  0  0  0  0  0  0  0
   -1.6627    1.2132    1.7222 C   0  0  2  0  0  0  0  0  0  0  0  0
   -1.2608    4.1823    1.7733 H   0  0  0  0  0  0  0  0  0  0  0  0
    1.2061    5.0141    1.0181 H   0  0  0  0  0  0  0  0  0  0  0  0
    2.7317    2.8130    0.5537 H   0  0  0  0  0  0  0  0  0  0  0  0
    2.8299    4.7745    3.6148 H   0  0  0  0  0  0  0  0  0  0  0  0
    0.2348    5.0127    4.3874 H   0  0  0  0  0  0  0  0  0  0  0  0
   -0.6704    2.5519    5.0678 H   0  0  0  0  0  0  0  0  0  0  0  0
    1.3559    0.7704    4.6805 H   0  0  0  0  0  0  0  0  0  0  0  0
    3.5330    2.1692    3.8145 H   0  0  0  0  0  0  0  0  0  0  0  0
    4.2493   -0.7900    0.7281 H   0  0  0  0  0  0  0  0  0  0  0  0
    1.5366    1.2754   -1.9537 H   0  0  0  0  0  0  0  0  0  0  0  0
    0.3351   -2.5849    1.6348 H   0  0  0  0  0  0  0  0  0  0  0  0
    3.3751    0.3232    2.6344 H   0  0  0  0  0  0  0  0  0  0  0  0
    6.1456   -0.2211   -0.7579 H   0  0  0  0  0  0  0  0  0  0  0  0
    3.4447    1.8107   -3.4629 H   0  0  0  0  0  0  0  0  0  0  0  0
    1.0201   -3.9772    3.5958 H   0  0  0  0  0  0  0  0  0  0  0  0
    4.0850   -1.0778    4.5725 H   0  0  0  0  0  0  0  0  0  0  0  0
   -3.6576   -0.7893    0.5958 C   0  0  1  0  0  0  0  0  0  0  0  0
   -2.6889    1.7935   -1.0606 C   0  0  1  0  0  0  0  0  0  0  0  0
   -4.4588   -1.2506   -0.6415 C   0  0  0  0  0  0  0  0  0  0  0  0
   -5.0682   -2.1262   -0.3526 H   0  0  0  0  0  0  0  0  0  0  0  0
   -5.1476   -0.4792   -1.0110 H   0  0  0  0  0  0  0  0  0  0  0  0
   -3.8012   -1.5536   -1.4687 H   0  0  0  0  0  0  0  0  0  0  0  0
   -1.3732    2.2960   -1.7066 C   0  0  0  0  0  0  0  0  0  0  0  0
   -1.6049    3.1579   -2.3590 H   0  0  0  0  0  0  0  0  0  0  0  0
   -0.6270    2.6222   -0.9666 H   0  0  0  0  0  0  0  0  0  0  0  0
   -0.9273    1.5041   -2.3337 H   0  0  0  0  0  0  0  0  0  0  0  0
   -3.0488   -2.0744    1.2175 C   0  0  0  0  0  0  0  0  0  0  0  0
   -3.8743   -2.7360    1.5383 H   0  0  0  0  0  0  0  0  0  0  0  0
   -2.4499   -2.6200    0.4661 H   0  0  0  0  0  0  0  0  0  0  0  0
   -2.4084   -1.8904    2.0901 H   0  0  0  0  0  0  0  0  0  0  0  0
   -4.6251   -0.0927    1.5762 C   0  0  0  0  0  0  0  0  0  0  0  0
   -5.4469   -0.7904    1.8214 H   0  0  0  0  0  0  0  0  0  0  0  0
   -4.1507    0.2007    2.5256 H   0  0  0  0  0  0  0  0  0  0  0  0
   -5.0798    0.8040    1.1231 H   0  0  0  0  0  0  0  0  0  0  0  0
   -3.6185    1.3235   -2.1999 C   0  0  0  0  0  0  0  0  0  0  0  0
   -3.6214    2.1035   -2.9824 H   0  0  0  0  0  0  0  0  0  0  0  0
   -3.2792    0.3897   -2.6693 H   0  0  0  0  0  0  0  0  0  0  0  0
   -4.6567    1.1977   -1.8591 H   0  0  0  0  0  0  0  0  0  0  0  0
   -3.3929    2.9406   -0.3069 C   0  0  0  0  0  0  0  0  0  0  0  0
   -3.7036    3.7034   -1.0442 H   0  0  0  0  0  0  0  0  0  0  0  0
   -4.3022    2.5968    0.2141 H   0  0  0  0  0  0  0  0  0  0  0  0
   -2.7352    3.4393    0.4185 H   0  0  0  0  0  0  0  0  0  0  0  0
    5.7644    1.0889   -2.8542 H   0  0  0  0  0  0  0  0  0  0  0  0
    2.9048   -3.2281    5.0596 H   0  0  0  0  0  0  0  0  0  0  0  0
   -2.5133    1.8688    1.9744 H   0  0  0  0  0  0  0  0  0  0  0  0
   -1.4282    0.2522    2.9017 C   0  0  0  0  0  0  0  0  0  0  0  0
   -1.0456    0.8432    3.7454 H   0  0  0  0  0  0  0  0  0  0  0  0
   -2.3494   -0.2520    3.2258 H   0  0  0  0  0  0  0  0  0  0  0  0
   -0.6717   -0.5128    2.6706 H   0  0  0  0  0  0  0  0  0  0  0  0
  1  8  1  0
  2  1  1  0
  2  3  1  0
  2  5  1  0
  3 24  1  0
  3  9  1  0
  2  4  1  6
  6 33  1  0
  6 49  1  0
 72  7  1  6
  7 55  1  0
 10 11  2  0
 10 15  1  0
 11 12  1  0
 12 18  1  0
 12 13  2  0
 13  1  1  0
 14 13  1  0
 14 19  1  0
 15 14  2  0
 16 10  1  0
 17 11  1  0
 20 15  1  0
 21 27  1  0
 21 22  1  0
 22 28  1  0
 23 22  2  0
 23 29  1  0
 24 23  1  0
 25 26  1  0
 25 24  2  0
 26 21  2  0
 30 25  1  0
 31 26  1  0
 33 34  2  0
 34 35  1  0
 34 55  1  0
 35 56  1  1
 35 32  1  0
 36 35  1  0
 37 58  1  0
 37 36  1  0
 37 33  1  0
 37 32  1  0
 38 42  2  0
 38 39  1  0
 39 60  1  0
 39 40  1  0
 40 61  1  0
 41 62  1  0
 41 40  2  0
 42 41  1  0
 43 44  1  0
 43  6  1  0
 44 64  1  0
 45 68  1  0
 45 44  2  0
 46 45  1  0
 47 46  2  0
 47 48  1  0
 48 43  2  0
 49 50  2  0
 49 54  1  0
 50 51  1  0
 51 70  1  0
 51 52  2  0
 52 99  1  0
 53 52  1  0
 53 71  1  0
 54 53  2  0
 55100  1  1
 55101  1  0
 57 36  1  0
 59 38  1  0
 63 42  1  0
 65 48  1  0
 66 50  1  0
 67 54  1  0
 69 47  1  0
 72 82  1  0
 72 86  1  0
 73 94  1  0
 73  7  1  1
 74 75  1  0
 74 72  1  0
 76 74  1  0
 77 74  1  0
 78 73  1  0
 78 80  1  0
 79 78  1  0
 81 78  1  0
 82 83  1  0
 82 85  1  0
 84 82  1  0
 86 87  1  0
 86 88  1  0
 89 86  1  0
 90 93  1  0
 90 73  1  0
 91 90  1  0
 92 90  1  0
 94 96  1  0
 94 97  1  0
 95 94  1  0
 98 46  1  0
101103  1  0
101102  1  0
104101  1  0
M  END
>  <Energy>  (3) 
-3898.436481

$$$$
