ferrocene003_allyl_cs_CONF_0001.xyz
     RDKit          3D

102104  0  0  1  0  0  0  0  0999 V2000
    3.1961   -0.2003    0.7203 C   0  0  0  0  0  0  0  0  0  0  0  0
    2.9173    0.7196   -0.2886 C   0  0  0  0  0  0  0  0  0  0  0  0
    2.2174    1.9612   -0.0689 C   0  0  2  0  0  0  0  0  0  0  0  0
    3.2821    0.5144   -1.3026 H   0  0  0  0  0  0  0  0  0  0  0  0
    0.6622    0.3407    0.0691 Pd  0  0  0  0  0  1  0  0  0  0  0  0
   -1.1520    1.6397    0.9398 P   0  0  0  0  0  0  0  0  0  0  0  0
   -0.3065   -1.8328   -0.5031 P   0  0  0  0  0  0  0  0  0  0  0  0
    2.8834    0.0559    1.7424 H   0  0  0  0  0  0  0  0  0  0  0  0
    2.2979    2.3965    0.9352 H   0  0  0  0  0  0  0  0  0  0  0  0
    5.6741   -3.6859    0.4834 C   0  0  0  0  0  0  0  0  0  0  0  0
    5.0457   -3.3345    1.6883 C   0  0  0  0  0  0  0  0  0  0  0  0
    4.2429   -2.1915    1.7490 C   0  0  0  0  0  0  0  0  0  0  0  0
    4.0440   -1.3792    0.6045 C   0  0  0  0  0  0  0  0  0  0  0  0
    4.7010   -1.7401   -0.6009 C   0  0  0  0  0  0  0  0  0  0  0  0
    5.5028   -2.8810   -0.6578 C   0  0  0  0  0  0  0  0  0  0  0  0
    6.3054   -4.5789    0.4334 H   0  0  0  0  0  0  0  0  0  0  0  0
    5.1867   -3.9509    2.5818 H   0  0  0  0  0  0  0  0  0  0  0  0
    3.7556   -1.9170    2.6910 H   0  0  0  0  0  0  0  0  0  0  0  0
    4.5823   -1.1245   -1.4975 H   0  0  0  0  0  0  0  0  0  0  0  0
    6.0048   -3.1462   -1.5937 H   0  0  0  0  0  0  0  0  0  0  0  0
    2.0802    4.8008   -3.3143 C   0  0  0  0  0  0  0  0  0  0  0  0
    1.8683    3.4349   -3.5650 C   0  0  0  0  0  0  0  0  0  0  0  0
    1.9122    2.5129   -2.5150 C   0  0  0  0  0  0  0  0  0  0  0  0
    2.1612    2.9325   -1.1852 C   0  0  0  0  0  0  0  0  0  0  0  0
    2.3901    4.3076   -0.9542 C   0  0  0  0  0  0  0  0  0  0  0  0
    2.3476    5.2312   -2.0060 C   0  0  0  0  0  0  0  0  0  0  0  0
    2.0434    5.5238   -4.1355 H   0  0  0  0  0  0  0  0  0  0  0  0
    1.6619    3.0896   -4.5835 H   0  0  0  0  0  0  0  0  0  0  0  0
    1.7154    1.4549   -2.7200 H   0  0  0  0  0  0  0  0  0  0  0  0
    2.6194    4.6539    0.0592 H   0  0  0  0  0  0  0  0  0  0  0  0
    2.5315    6.2916   -1.8041 H   0  0  0  0  0  0  0  0  0  0  0  0
   -3.5855   -0.8214    0.1724 Fe  0  0  0  0  0  2  0  0  0  0  0  0
   -2.8260    1.0118    0.5481 C   0  0  0  0  0  3  0  0  0  0  0  0
   -3.9767    0.7539    1.3922 C   0  0  0  0  0  0  0  0  0  0  0  0
   -3.9942    0.7363    2.4815 H   0  0  0  0  0  0  0  0  0  0  0  0
   -5.1093    0.4949    0.5536 C   0  0  0  0  0  0  0  0  0  0  0  0
   -6.1098    0.2322    0.9023 H   0  0  0  0  0  0  0  0  0  0  0  0
   -4.6887    0.5898   -0.8116 C   0  0  0  0  0  3  0  0  0  0  0  0
   -5.3116    0.4155   -1.6906 H   0  0  0  0  0  0  0  0  0  0  0  0
   -3.2907    0.9014   -0.8227 C   0  0  2  0  0  0  0  0  0  0  0  0
   -2.0883   -2.1344   -0.1700 C   0  0  0  0  0  0  0  0  0  0  0  0
   -3.2014   -2.3805   -1.0668 C   0  0  0  0  0  0  0  0  0  0  0  0
   -3.1859   -2.3364   -2.1546 H   0  0  0  0  0  0  0  0  0  0  0  0
   -4.3705   -2.6574   -0.2863 C   0  0  0  0  0  0  0  0  0  0  0  0
   -5.3690   -2.8439   -0.6857 H   0  0  0  0  0  0  0  0  0  0  0  0
   -4.0095   -2.5986    1.0966 C   0  0  0  0  0  0  0  0  0  0  0  0
   -4.6808   -2.7384    1.9456 H   0  0  0  0  0  0  0  0  0  0  0  0
   -2.6172   -2.2760    1.1750 C   0  0  2  0  0  0  0  0  0  0  0  0
   -0.1165   -1.8848   -2.4196 C   0  0  1  0  0  0  0  0  0  0  0  0
    0.4520   -3.4340    0.2862 C   0  0  1  0  0  0  0  0  0  0  0  0
   -2.6740    1.0221   -1.7110 H   0  0  0  0  0  0  0  0  0  0  0  0
   -2.0545   -2.1587    2.0978 H   0  0  0  0  0  0  0  0  0  0  0  0
   -0.9358    1.5326    2.8538 C   0  0  1  0  0  0  0  0  0  0  0  0
   -1.4026    3.4850    0.4107 C   0  0  1  0  0  0  0  0  0  0  0  0
   -1.8861    2.4465    3.6563 C   0  0  0  0  0  0  0  0  0  0  0  0
   -1.7585    2.2229    4.7316 H   0  0  0  0  0  0  0  0  0  0  0  0
   -1.6544    3.5134    3.5151 H   0  0  0  0  0  0  0  0  0  0  0  0
   -2.9462    2.2882    3.4066 H   0  0  0  0  0  0  0  0  0  0  0  0
   -1.1656    0.0607    3.2559 C   0  0  0  0  0  0  0  0  0  0  0  0
   -0.9306   -0.0598    4.3294 H   0  0  0  0  0  0  0  0  0  0  0  0
   -2.2043   -0.2612    3.0944 H   0  0  0  0  0  0  0  0  0  0  0  0
   -0.4986   -0.6061    2.6827 H   0  0  0  0  0  0  0  0  0  0  0  0
    0.5273    1.8772    3.2175 C   0  0  0  0  0  0  0  0  0  0  0  0
    0.6506    1.7799    4.3116 H   0  0  0  0  0  0  0  0  0  0  0  0
    1.2251    1.1718    2.7341 H   0  0  0  0  0  0  0  0  0  0  0  0
    0.8154    2.9012    2.9387 H   0  0  0  0  0  0  0  0  0  0  0  0
   -2.8104    4.0168    0.7611 C   0  0  0  0  0  0  0  0  0  0  0  0
   -3.6052    3.4451    0.2561 H   0  0  0  0  0  0  0  0  0  0  0  0
   -0.3379    4.3755    1.0788 C   0  0  0  0  0  0  0  0  0  0  0  0
   -0.3543    5.3724    0.6032 H   0  0  0  0  0  0  0  0  0  0  0  0
   -0.5325    4.5178    2.1539 H   0  0  0  0  0  0  0  0  0  0  0  0
    0.6745    3.9696    0.9544 H   0  0  0  0  0  0  0  0  0  0  0  0
   -1.2351    3.5326   -1.1256 C   0  0  0  0  0  0  0  0  0  0  0  0
   -1.1903    4.5882   -1.4490 H   0  0  0  0  0  0  0  0  0  0  0  0
   -0.3119    3.0390   -1.4605 H   0  0  0  0  0  0  0  0  0  0  0  0
   -2.0914    3.0686   -1.6395 H   0  0  0  0  0  0  0  0  0  0  0  0
   -3.0140    4.0191    1.8420 H   0  0  0  0  0  0  0  0  0  0  0  0
   -2.8751    5.0630    0.4082 H   0  0  0  0  0  0  0  0  0  0  0  0
   -0.9464   -0.6999   -2.9712 C   0  0  0  0  0  0  0  0  0  0  0  0
   -0.7993   -0.6368   -4.0649 H   0  0  0  0  0  0  0  0  0  0  0  0
   -2.0237   -0.8050   -2.7785 H   0  0  0  0  0  0  0  0  0  0  0  0
   -0.6097    0.2543   -2.5243 H   0  0  0  0  0  0  0  0  0  0  0  0
    1.3582   -1.6040   -2.7948 C   0  0  0  0  0  0  0  0  0  0  0  0
    1.4190   -1.4323   -3.8849 H   0  0  0  0  0  0  0  0  0  0  0  0
    1.7258   -0.6960   -2.2872 H   0  0  0  0  0  0  0  0  0  0  0  0
    2.0356   -2.4326   -2.5483 H   0  0  0  0  0  0  0  0  0  0  0  0
   -0.5583   -3.2125   -3.0685 C   0  0  0  0  0  0  0  0  0  0  0  0
    0.1155   -4.0409   -2.7977 H   0  0  0  0  0  0  0  0  0  0  0  0
   -1.5834   -3.5064   -2.7980 H   0  0  0  0  0  0  0  0  0  0  0  0
   -0.5181   -3.1026   -4.1682 H   0  0  0  0  0  0  0  0  0  0  0  0
   -0.4984   -4.6477    0.1976 C   0  0  0  0  0  0  0  0  0  0  0  0
    0.0208   -5.5271    0.6223 H   0  0  0  0  0  0  0  0  0  0  0  0
   -1.4278   -4.4989    0.7683 H   0  0  0  0  0  0  0  0  0  0  0  0
   -0.7693   -4.8893   -0.8423 H   0  0  0  0  0  0  0  0  0  0  0  0
    1.7876   -3.7961   -0.3894 C   0  0  0  0  0  0  0  0  0  0  0  0
    2.2888   -4.5767    0.2109 H   0  0  0  0  0  0  0  0  0  0  0  0
    1.6428   -4.2037   -1.4025 H   0  0  0  0  0  0  0  0  0  0  0  0
    2.4714   -2.9385   -0.4449 H   0  0  0  0  0  0  0  0  0  0  0  0
    0.7291   -3.0950    1.7683 C   0  0  0  0  0  0  0  0  0  0  0  0
    1.2672   -3.9372    2.2405 H   0  0  0  0  0  0  0  0  0  0  0  0
    1.3537   -2.1908    1.8623 H   0  0  0  0  0  0  0  0  0  0  0  0
   -0.1988   -2.9367    2.3401 H   0  0  0  0  0  0  0  0  0  0  0  0
  1  8  1  0
  2  3  1  0
  2  1  2  0
  3  5  1  0
  3  9  1  1
  4  2  1  0
 53  6  1  6
  7 41  1  0
 50  7  1  6
 10 11  1  0
 11 12  2  0
 11 17  1  0
 12 18  1  0
 13  1  1  0
 13 12  1  0
 14 13  2  0
 15 14  1  0
 15 10  2  0
 16 10  1  0
 19 14  1  0
 20 15  1  0
 21 26  1  0
 22 21  2  0
 22 23  1  0
 23 24  2  0
 24 25  1  0
 24  3  1  0
 25 30  1  0
 26 31  1  0
 26 25  2  0
 27 21  1  0
 28 22  1  0
 29 23  1  0
 32 48  1  0
 33  6  1  0
 33 34  1  0
 34 35  1  0
 36 37  1  0
 36 34  2  0
 38 36  1  0
 39 38  1  0
 40 51  1  6
 40 38  1  0
 40 32  1  0
 40 33  1  0
 41 48  1  0
 42 44  1  0
 42 41  2  0
 43 42  1  0
 44 46  2  0
 45 44  1  0
 46 48  1  0
 46 47  1  0
 48 52  1  1
 49  7  1  1
 50 99  1  0
 53 63  1  0
 53 59  1  0
 53 55  1  0
 54 67  1  0
 54  6  1  1
 54 69  1  0
 55 56  1  0
 57 55  1  0
 58 55  1  0
 59 60  1  0
 61 59  1  0
 62 59  1  0
 63 64  1  0
 65 63  1  0
 66 63  1  0
 67 77  1  0
 68 67  1  0
 69 71  1  0
 70 69  1  0
 72 69  1  0
 73 54  1  0
 74 73  1  0
 75 73  1  0
 76 73  1  0
 78 67  1  0
 79 81  1  0
 79 82  1  0
 79 49  1  0
 80 79  1  0
 83 86  1  0
 83 49  1  0
 83 85  1  0
 84 83  1  0
 87 89  1  0
 87 88  1  0
 87 49  1  0
 90 87  1  0
 91 50  1  0
 91 92  1  0
 91 93  1  0
 94 91  1  0
 95 96  1  0
 95 50  1  0
 97 95  1  0
 98 95  1  0
 99101  1  0
 99100  1  0
 99102  1  0
M  END
>  <Energy>  (1) 
-3672.06401

$$$$
