ferrocene027_allyl_2_cs_CONF_0001.xyz
     RDKit          3D

104107  0  0  1  0  0  0  0  0999 V2000
    0.7871    0.8097    2.9763 C   0  0  0  0  0  3  0  0  0  0  0  0
    2.0824    0.3218    2.6623 C   0  0  1  0  0  0  0  0  0  0  0  0
    2.9336    0.9985    1.7589 C   0  0  0  0  0  3  0  0  0  0  0  0
    2.3993   -0.6452    3.0715 H   0  0  0  0  0  0  0  0  0  0  0  0
    0.9260    0.3252    0.7645 Pd  0  0  0  0  0  1  0  0  0  0  0  0
    1.4316    0.0918   -1.5497 P   0  0  0  0  0  0  0  0  0  0  0  0
   -1.4117    0.1778    0.5383 P   0  0  0  0  0  0  0  0  0  0  0  0
    0.6016    1.8818    2.8115 H   0  0  0  0  0  0  0  0  0  0  0  0
    2.7095    2.0591    1.5700 H   0  0  0  0  0  0  0  0  0  0  0  0
   -1.8200   -0.9303    5.9254 C   0  0  0  0  0  0  0  0  0  0  0  0
   -1.9109    0.4294    5.5972 C   0  0  0  0  0  0  0  0  0  0  0  0
   -1.0666    0.9759    4.6228 C   0  0  0  0  0  0  0  0  0  0  0  0
   -0.1077    0.1762    3.9622 C   0  0  0  0  0  0  0  0  0  0  0  0
   -0.0206   -1.1916    4.3130 C   0  0  0  0  0  0  0  0  0  0  0  0
   -0.8687   -1.7384    5.2793 C   0  0  0  0  0  0  0  0  0  0  0  0
   -2.4822   -1.3606    6.6837 H   0  0  0  0  0  0  0  0  0  0  0  0
   -2.6446    1.0696    6.0979 H   0  0  0  0  0  0  0  0  0  0  0  0
   -1.1446    2.0382    4.3676 H   0  0  0  0  0  0  0  0  0  0  0  0
    0.7123   -1.8384    3.8198 H   0  0  0  0  0  0  0  0  0  0  0  0
   -0.7910   -2.8011    5.5307 H   0  0  0  0  0  0  0  0  0  0  0  0
    7.0177   -0.0674    0.9103 C   0  0  0  0  0  0  0  0  0  0  0  0
    6.5601    1.2434    0.7083 C   0  0  0  0  0  0  0  0  0  0  0  0
    5.2293    1.5737    0.9898 C   0  0  0  0  0  0  0  0  0  0  0  0
    4.3227    0.6010    1.4741 C   0  0  0  0  0  0  0  0  0  0  0  0
    4.8072   -0.7106    1.6933 C   0  0  0  0  0  0  0  0  0  0  0  0
    6.1364   -1.0399    1.4119 C   0  0  0  0  0  0  0  0  0  0  0  0
    8.0571   -0.3290    0.6878 H   0  0  0  0  0  0  0  0  0  0  0  0
    7.2436    2.0128    0.3349 H   0  0  0  0  0  0  0  0  0  0  0  0
    4.8844    2.6027    0.8404 H   0  0  0  0  0  0  0  0  0  0  0  0
    4.1380   -1.4857    2.0804 H   0  0  0  0  0  0  0  0  0  0  0  0
    6.4892   -2.0621    1.5835 H   0  0  0  0  0  0  0  0  0  0  0  0
   -3.2859   -0.1353   -2.5897 Fe  0  0  0  0  0  1  0  0  0  0  0  0
   -1.9998    0.5648   -1.1498 C   0  0  0  0  0  0  0  0  0  0  0  0
   -1.2764    0.2490   -2.3714 C   0  0  0  0  0  0  0  0  0  0  0  0
   -1.8595    1.0309   -3.4315 C   0  0  2  0  0  0  0  0  0  0  0  0
   -2.9129    1.8371   -2.8837 C   0  0  0  0  0  0  0  0  0  0  0  0
   -3.0138    1.5451   -1.4852 C   0  0  0  0  0  0  0  0  0  0  0  0
   -5.2186   -0.2853   -3.2262 C   0  0  0  0  0  0  0  0  0  0  0  0
   -4.3215   -0.8190   -4.2109 C   0  0  0  0  0  0  0  0  0  0  0  0
   -3.5912   -1.8956   -3.6077 C   0  0  0  0  0  0  0  0  0  0  0  0
   -4.0291   -2.0239   -2.2481 C   0  0  0  0  0  0  0  0  0  0  0  0
   -5.0381   -1.0282   -2.0133 C   0  0  0  0  0  3  0  0  0  0  0  0
   -2.2713    1.4727    1.5270 C   0  0  0  0  0  0  0  0  0  0  0  0
   -3.2867    1.2041    2.4626 C   0  0  0  0  0  0  0  0  0  0  0  0
   -3.9006    2.2584    3.1586 C   0  0  0  0  0  0  0  0  0  0  0  0
   -3.4918    3.5811    2.9480 C   0  0  0  0  0  0  0  0  0  0  0  0
   -2.4589    3.8539    2.0342 C   0  0  0  0  0  0  0  0  0  0  0  0
   -1.8540    2.8082    1.3280 C   0  0  0  0  0  0  0  0  0  0  0  0
   -2.1094   -1.4300    1.0718 C   0  0  0  0  0  0  0  0  0  0  0  0
   -1.2423   -2.4321    1.5458 C   0  0  0  0  0  0  0  0  0  0  0  0
   -1.7514   -3.6720    1.9557 C   0  0  0  0  0  0  0  0  0  0  0  0
   -3.1316   -3.9146    1.9011 C   0  0  0  0  0  0  0  0  0  0  0  0
   -4.0024   -2.9197    1.4266 C   0  0  0  0  0  0  0  0  0  0  0  0
   -3.4937   -1.6837    1.0074 C   0  0  0  0  0  0  0  0  0  0  0  0
   -0.0696   -0.6479   -2.4816 C   0  0  2  0  0  0  0  0  0  0  0  0
   -1.5595    0.9984   -4.4809 H   0  0  0  0  0  0  0  0  0  0  0  0
   -3.5579    2.5169   -3.4434 H   0  0  0  0  0  0  0  0  0  0  0  0
   -3.7204    1.9888   -0.7827 H   0  0  0  0  0  0  0  0  0  0  0  0
   -5.8996    0.5560   -3.3680 H   0  0  0  0  0  0  0  0  0  0  0  0
   -4.2004   -0.4546   -5.2327 H   0  0  0  0  0  0  0  0  0  0  0  0
   -2.8320   -2.5036   -4.1030 H   0  0  0  0  0  0  0  0  0  0  0  0
   -3.6591   -2.7449   -1.5181 H   0  0  0  0  0  0  0  0  0  0  0  0
   -5.5859   -0.8634   -1.0844 H   0  0  0  0  0  0  0  0  0  0  0  0
   -3.5897    0.1758    2.6739 H   0  0  0  0  0  0  0  0  0  0  0  0
   -1.0582    3.0273    0.6082 H   0  0  0  0  0  0  0  0  0  0  0  0
   -0.1643   -2.2349    1.5767 H   0  0  0  0  0  0  0  0  0  0  0  0
   -4.1658   -0.9153    0.6159 H   0  0  0  0  0  0  0  0  0  0  0  0
   -4.6907    2.0348    3.8829 H   0  0  0  0  0  0  0  0  0  0  0  0
   -2.1277    4.8844    1.8691 H   0  0  0  0  0  0  0  0  0  0  0  0
   -1.0700   -4.4478    2.3194 H   0  0  0  0  0  0  0  0  0  0  0  0
   -5.0795   -3.1105    1.3758 H   0  0  0  0  0  0  0  0  0  0  0  0
    2.8459   -1.1565   -1.9851 C   0  0  1  0  0  0  0  0  0  0  0  0
    1.7344    1.8282   -2.3282 C   0  0  1  0  0  0  0  0  0  0  0  0
    2.7023   -1.7695   -3.3967 C   0  0  0  0  0  0  0  0  0  0  0  0
    3.5738   -2.4249   -3.5787 H   0  0  0  0  0  0  0  0  0  0  0  0
    1.8016   -2.3894   -3.5201 H   0  0  0  0  0  0  0  0  0  0  0  0
    2.7039   -0.9964   -4.1827 H   0  0  0  0  0  0  0  0  0  0  0  0
    1.7072    1.7950   -3.8683 C   0  0  0  0  0  0  0  0  0  0  0  0
    1.8705    2.8181   -4.2545 H   0  0  0  0  0  0  0  0  0  0  0  0
    2.5077    1.1560   -4.2772 H   0  0  0  0  0  0  0  0  0  0  0  0
    0.7402    1.4456   -4.2629 H   0  0  0  0  0  0  0  0  0  0  0  0
    4.2395   -0.4980   -1.9061 C   0  0  0  0  0  0  0  0  0  0  0  0
    4.9987   -1.3007   -1.9172 H   0  0  0  0  0  0  0  0  0  0  0  0
    4.4362    0.1504   -2.7738 H   0  0  0  0  0  0  0  0  0  0  0  0
    4.3860    0.0791   -0.9832 H   0  0  0  0  0  0  0  0  0  0  0  0
    2.7899   -2.2568   -0.8963 C   0  0  0  0  0  0  0  0  0  0  0  0
    3.5877   -2.9966   -1.0924 H   0  0  0  0  0  0  0  0  0  0  0  0
    2.9681   -1.8201    0.1000 H   0  0  0  0  0  0  0  0  0  0  0  0
    1.8309   -2.7942   -0.8671 H   0  0  0  0  0  0  0  0  0  0  0  0
    0.6350    2.7711   -1.7781 C   0  0  0  0  0  0  0  0  0  0  0  0
    0.7979    3.7800   -2.1996 H   0  0  0  0  0  0  0  0  0  0  0  0
   -0.3855    2.4602   -2.0345 H   0  0  0  0  0  0  0  0  0  0  0  0
    0.7159    2.8486   -0.6782 H   0  0  0  0  0  0  0  0  0  0  0  0
    3.0761    2.4211   -1.8404 C   0  0  0  0  0  0  0  0  0  0  0  0
    3.0633    3.5088   -2.0351 H   0  0  0  0  0  0  0  0  0  0  0  0
    3.2092    2.2749   -0.7572 H   0  0  0  0  0  0  0  0  0  0  0  0
    3.9501    2.0050   -2.3571 H   0  0  0  0  0  0  0  0  0  0  0  0
   -3.9690    4.3992    3.4973 H   0  0  0  0  0  0  0  0  0  0  0  0
   -3.5311   -4.8817    2.2237 H   0  0  0  0  0  0  0  0  0  0  0  0
    0.2218   -0.6892   -3.5449 H   0  0  0  0  0  0  0  0  0  0  0  0
   -0.3840   -2.0752   -1.9904 C   0  0  0  0  0  0  0  0  0  0  0  0
   -1.3453   -2.3832   -2.4238 H   0  0  0  0  0  0  0  0  0  0  0  0
    0.3812   -2.8049   -2.2897 H   0  0  0  0  0  0  0  0  0  0  0  0
   -0.4894   -2.1176   -0.8956 H   0  0  0  0  0  0  0  0  0  0  0  0
  1 13  1  0
  2  1  1  0
  2  4  1  6
  3  2  1  0
  5  2  1  0
  7 49  1  0
  7 43  1  0
  8  1  1  0
  9  3  1  0
 10 16  1  0
 11 10  1  0
 11 17  1  0
 12 11  2  0
 13 14  2  0
 13 12  1  0
 14 15  1  0
 15 20  1  0
 15 10  2  0
 18 12  1  0
 19 14  1  0
 21 26  1  0
 22 21  2  0
 22 23  1  0
 23 24  2  0
 24 25  1  0
 24  3  1  0
 25 30  1  0
 26 31  1  0
 26 25  2  0
 27 21  1  0
 28 22  1  0
 29 23  1  0
 33  7  1  0
 34 33  2  0
 35 56  1  6
 35 36  1  0
 35 32  1  0
 35 34  1  0
 36 37  2  0
 37 33  1  0
 37 58  1  0
 38 42  1  0
 39 40  1  0
 39 38  2  0
 40 41  2  0
 41 42  1  0
 41 62  1  0
 42 63  1  0
 43 44  1  0
 44 64  1  0
 44 45  2  0
 45 68  1  0
 46 45  1  0
 46 98  1  0
 47 46  2  0
 48 43  2  0
 48 47  1  0
 49 50  1  0
 50 66  1  0
 50 51  2  0
 51 70  1  0
 52 51  1  0
 52 99  1  0
 53 52  2  0
 54 49  2  0
 54 53  1  0
 55100  1  6
 55 34  1  0
 55101  1  0
 55  6  1  0
 57 36  1  0
 59 38  1  0
 60 39  1  0
 61 40  1  0
 65 48  1  0
 67 54  1  0
 69 47  1  0
 71 53  1  0
 72 82  1  0
 72  6  1  1
 72 86  1  0
 73 94  1  0
 73 90  1  0
 73  6  1  1
 74 72  1  0
 75 74  1  0
 76 74  1  0
 77 74  1  0
 78 73  1  0
 79 78  1  0
 80 78  1  0
 81 78  1  0
 82 85  1  0
 83 82  1  0
 84 82  1  0
 86 89  1  0
 86 88  1  0
 87 86  1  0
 90 93  1  0
 91 90  1  0
 92 90  1  0
 94 96  1  0
 95 94  1  0
 97 94  1  0
101104  1  0
102101  1  0
103101  1  0
M  END
>  <Energy>  (1) 
-3898.4363590000003

$$$$
ferrocene027_allyl_2_cs_CONF_0003.xyz
     RDKit          3D

104107  0  0  1  0  0  0  0  0999 V2000
    0.7849    0.5763    3.0298 C   0  0  0  0  0  3  0  0  0  0  0  0
    2.0888    0.1455    2.6717 C   0  0  1  0  0  0  0  0  0  0  0  0
    2.9196    0.9121    1.8227 C   0  0  0  0  0  3  0  0  0  0  0  0
    2.4297   -0.8442    2.9997 H   0  0  0  0  0  0  0  0  0  0  0  0
    0.9227    0.2791    0.7853 Pd  0  0  0  0  0  1  0  0  0  0  0  0
    1.4205    0.2493   -1.5426 P   0  0  0  0  0  0  0  0  0  0  0  0
   -1.4126    0.1014    0.5561 P   0  0  0  0  0  0  0  0  0  0  0  0
    0.5740    1.6538    2.9545 H   0  0  0  0  0  0  0  0  0  0  0  0
    2.6722    1.9796    1.7223 H   0  0  0  0  0  0  0  0  0  0  0  0
   -1.7627   -1.4595    5.8383 C   0  0  0  0  0  0  0  0  0  0  0  0
   -1.8878   -0.0803    5.6220 C   0  0  0  0  0  0  0  0  0  0  0  0
   -1.0627    0.5636    4.6916 C   0  0  0  0  0  0  0  0  0  0  0  0
   -0.0894   -0.1566    3.9640 C   0  0  0  0  0  0  0  0  0  0  0  0
    0.0320   -1.5460    4.2019 C   0  0  0  0  0  0  0  0  0  0  0  0
   -0.7968   -2.1895    5.1244 C   0  0  0  0  0  0  0  0  0  0  0  0
   -2.4096   -1.9658    6.5621 H   0  0  0  0  0  0  0  0  0  0  0  0
   -2.6332    0.4994    6.1762 H   0  0  0  0  0  0  0  0  0  0  0  0
   -1.1669    1.6410    4.5243 H   0  0  0  0  0  0  0  0  0  0  0  0
    0.7768   -2.1329    3.6546 H   0  0  0  0  0  0  0  0  0  0  0  0
   -0.6924   -3.2670    5.2884 H   0  0  0  0  0  0  0  0  0  0  0  0
    7.0221    0.0088    0.8798 C   0  0  0  0  0  0  0  0  0  0  0  0
    6.1637   -1.0209    1.3002 C   0  0  0  0  0  0  0  0  0  0  0  0
    4.8287   -0.7450    1.6102 C   0  0  0  0  0  0  0  0  0  0  0  0
    4.3155    0.5695    1.5018 C   0  0  0  0  0  0  0  0  0  0  0  0
    5.1992    1.5983    1.0979 C   0  0  0  0  0  0  0  0  0  0  0  0
    6.5358    1.3214    0.7877 C   0  0  0  0  0  0  0  0  0  0  0  0
    8.0662   -0.2108    0.6350 H   0  0  0  0  0  0  0  0  0  0  0  0
    6.5391   -2.0459    1.3862 H   0  0  0  0  0  0  0  0  0  0  0  0
    4.1777   -1.5640    1.9328 H   0  0  0  0  0  0  0  0  0  0  0  0
    4.8316    2.6284    1.0349 H   0  0  0  0  0  0  0  0  0  0  0  0
    7.2012    2.1339    0.4784 H   0  0  0  0  0  0  0  0  0  0  0  0
   -3.2965    0.0129   -2.5812 Fe  0  0  0  0  0  1  0  0  0  0  0  0
   -2.0179    0.6157   -1.0913 C   0  0  0  0  0  0  0  0  0  0  0  0
   -1.2945    0.4181   -2.3376 C   0  0  0  0  0  0  0  0  0  0  0  0
   -1.8986    1.2741   -3.3264 C   0  0  2  0  0  0  0  0  0  0  0  0
   -2.9647    2.0104   -2.7090 C   0  0  0  0  0  0  0  0  0  0  0  0
   -3.0526    1.6003   -1.3396 C   0  0  0  0  0  0  0  0  0  0  0  0
   -3.9980   -1.9132   -2.3997 C   0  0  0  0  0  0  0  0  0  0  0  0
   -5.0275   -0.9633   -2.0798 C   0  0  0  0  0  3  0  0  0  0  0  0
   -5.2279   -0.1243   -3.2249 C   0  0  0  0  0  0  0  0  0  0  0  0
   -4.3226   -0.5527   -4.2526 C   0  0  0  0  0  0  0  0  0  0  0  0
   -3.5671   -1.6603   -3.7440 C   0  0  0  0  0  0  0  0  0  0  0  0
   -2.2917    1.2921    1.6528 C   0  0  0  0  0  0  0  0  0  0  0  0
   -1.8997    2.6471    1.5660 C   0  0  0  0  0  0  0  0  0  0  0  0
   -2.5208    3.6181    2.3594 C   0  0  0  0  0  0  0  0  0  0  0  0
   -3.5447    3.2500    3.2495 C   0  0  0  0  0  0  0  0  0  0  0  0
   -3.9285    1.9069    3.3489 C   0  0  0  0  0  0  0  0  0  0  0  0
   -3.2983    0.9267    2.5648 C   0  0  0  0  0  0  0  0  0  0  0  0
   -2.0757   -1.5587    0.9567 C   0  0  0  0  0  0  0  0  0  0  0  0
   -1.1872   -2.5777    1.3478 C   0  0  0  0  0  0  0  0  0  0  0  0
   -1.6701   -3.8567    1.6567 C   0  0  0  0  0  0  0  0  0  0  0  0
   -3.0452   -4.1224    1.5832 C   0  0  0  0  0  0  0  0  0  0  0  0
   -3.9371   -3.1107    1.1906 C   0  0  0  0  0  0  0  0  0  0  0  0
   -3.4547   -1.8346    0.8726 C   0  0  0  0  0  0  0  0  0  0  0  0
   -0.0708   -0.4421   -2.5260 C   0  0  2  0  0  0  0  0  0  0  0  0
   -1.6037    1.3356   -4.3759 H   0  0  0  0  0  0  0  0  0  0  0  0
   -3.6260    2.7216   -3.2073 H   0  0  0  0  0  0  0  0  0  0  0  0
   -3.7641    1.9692   -0.5998 H   0  0  0  0  0  0  0  0  0  0  0  0
   -3.6108   -2.6857   -1.7340 H   0  0  0  0  0  0  0  0  0  0  0  0
   -5.5756   -0.8899   -1.1395 H   0  0  0  0  0  0  0  0  0  0  0  0
   -5.9275    0.7108   -3.2938 H   0  0  0  0  0  0  0  0  0  0  0  0
   -4.2126   -0.1002   -5.2399 H   0  0  0  0  0  0  0  0  0  0  0  0
   -2.7962   -2.2072   -4.2900 H   0  0  0  0  0  0  0  0  0  0  0  0
   -1.1111    2.9407    0.8650 H   0  0  0  0  0  0  0  0  0  0  0  0
   -3.5819   -0.1213    2.6889 H   0  0  0  0  0  0  0  0  0  0  0  0
   -0.1134   -2.3615    1.3941 H   0  0  0  0  0  0  0  0  0  0  0  0
   -4.1431   -1.0509    0.5450 H   0  0  0  0  0  0  0  0  0  0  0  0
   -2.2093    4.6649    2.2808 H   0  0  0  0  0  0  0  0  0  0  0  0
   -4.7113    1.6085    4.0538 H   0  0  0  0  0  0  0  0  0  0  0  0
   -0.9723   -4.6451    1.9568 H   0  0  0  0  0  0  0  0  0  0  0  0
   -5.0101   -3.3189    1.1249 H   0  0  0  0  0  0  0  0  0  0  0  0
    2.8576   -0.9297   -2.0842 C   0  0  1  0  0  0  0  0  0  0  0  0
    1.6834    2.0497   -2.1772 C   0  0  1  0  0  0  0  0  0  0  0  0
    4.2380   -0.2514   -1.9560 C   0  0  0  0  0  0  0  0  0  0  0  0
    5.0131   -1.0347   -2.0360 H   0  0  0  0  0  0  0  0  0  0  0  0
    4.4169    0.4703   -2.7681 H   0  0  0  0  0  0  0  0  0  0  0  0
    4.3776    0.2508   -0.9894 H   0  0  0  0  0  0  0  0  0  0  0  0
    1.6461    2.1427   -3.7146 C   0  0  0  0  0  0  0  0  0  0  0  0
    1.7846    3.1974   -4.0160 H   0  0  0  0  0  0  0  0  0  0  0  0
    2.4571    1.5572   -4.1790 H   0  0  0  0  0  0  0  0  0  0  0  0
    0.6840    1.8057   -4.1316 H   0  0  0  0  0  0  0  0  0  0  0  0
    2.8295   -2.1172   -1.0901 C   0  0  0  0  0  0  0  0  0  0  0  0
    3.6438   -2.8193   -1.3472 H   0  0  0  0  0  0  0  0  0  0  0  0
    2.9997   -1.7610   -0.0610 H   0  0  0  0  0  0  0  0  0  0  0  0
    1.8833   -2.6775   -1.1058 H   0  0  0  0  0  0  0  0  0  0  0  0
    2.7189   -1.4270   -3.5410 C   0  0  0  0  0  0  0  0  0  0  0  0
    3.6020   -2.0476   -3.7796 H   0  0  0  0  0  0  0  0  0  0  0  0
    1.8300   -2.0526   -3.7116 H   0  0  0  0  0  0  0  0  0  0  0  0
    2.7011   -0.5918   -4.2606 H   0  0  0  0  0  0  0  0  0  0  0  0
    0.5693    2.9213   -1.5452 C   0  0  0  0  0  0  0  0  0  0  0  0
    0.7080    3.9643   -1.8841 H   0  0  0  0  0  0  0  0  0  0  0  0
   -0.4467    2.6108   -1.8196 H   0  0  0  0  0  0  0  0  0  0  0  0
    0.6575    2.9111   -0.4431 H   0  0  0  0  0  0  0  0  0  0  0  0
    3.0164    2.6282   -1.6496 C   0  0  0  0  0  0  0  0  0  0  0  0
    2.9800    3.7278   -1.7535 H   0  0  0  0  0  0  0  0  0  0  0  0
    3.1605    2.3957   -0.5830 H   0  0  0  0  0  0  0  0  0  0  0  0
    3.8947    2.2746   -2.2041 H   0  0  0  0  0  0  0  0  0  0  0  0
   -4.0345    4.0099    3.8671 H   0  0  0  0  0  0  0  0  0  0  0  0
   -3.4241   -5.1203    1.8269 H   0  0  0  0  0  0  0  0  0  0  0  0
    0.2151   -0.3907   -3.5904 H   0  0  0  0  0  0  0  0  0  0  0  0
   -0.3532   -1.9109   -2.1512 C   0  0  0  0  0  0  0  0  0  0  0  0
   -1.3125   -2.2019   -2.6007 H   0  0  0  0  0  0  0  0  0  0  0  0
    0.4232   -2.5980   -2.5156 H   0  0  0  0  0  0  0  0  0  0  0  0
   -0.4469   -2.0453   -1.0627 H   0  0  0  0  0  0  0  0  0  0  0  0
  1 13  1  0
  2  4  1  6
  2  1  1  0
  3  2  1  0
  5  2  1  0
  7 49  1  0
  7 43  1  0
  8  1  1  0
  9  3  1  0
 10 16  1  0
 11 10  1  0
 11 17  1  0
 12 11  2  0
 13 14  2  0
 13 12  1  0
 14 15  1  0
 15 20  1  0
 15 10  2  0
 18 12  1  0
 19 14  1  0
 21 22  1  0
 22 28  1  0
 22 23  2  0
 23 29  1  0
 24 23  1  0
 24  3  1  0
 25 24  2  0
 26 21  2  0
 26 25  1  0
 27 21  1  0
 30 25  1  0
 31 26  1  0
 33  7  1  0
 34 33  2  0
 35 56  1  6
 35 36  1  0
 35 32  1  0
 35 34  1  0
 36 37  2  0
 37 33  1  0
 37 58  1  0
 38 39  1  0
 38 59  1  0
 39 60  1  0
 40 39  1  0
 41 42  1  0
 41 40  2  0
 42 38  2  0
 43 48  1  0
 44 43  2  0
 44 45  1  0
 45 46  2  0
 46 47  1  0
 46 98  1  0
 47 69  1  0
 48 65  1  0
 48 47  2  0
 49 50  1  0
 50 66  1  0
 50 51  2  0
 51 70  1  0
 52 51  1  0
 52 99  1  0
 53 52  2  0
 54 49  2  0
 54 53  1  0
 55100  1  6
 55 34  1  0
 55101  1  0
 55  6  1  0
 57 36  1  0
 61 40  1  0
 62 41  1  0
 63 42  1  0
 64 44  1  0
 67 54  1  0
 68 45  1  0
 71 53  1  0
 72 74  1  0
 72  6  1  1
 72 82  1  0
 73 94  1  0
 73 90  1  0
 73  6  1  6
 74 77  1  0
 75 74  1  0
 76 74  1  0
 78 73  1  0
 79 78  1  0
 80 78  1  0
 81 78  1  0
 82 84  1  0
 83 82  1  0
 85 82  1  0
 86 72  1  0
 87 86  1  0
 88 86  1  0
 89 86  1  0
 90 93  1  0
 91 90  1  0
 92 90  1  0
 94 96  1  0
 95 94  1  0
 97 94  1  0
101104  1  0
102101  1  0
103101  1  0
M  END
>  <Energy>  (2) 
-3898.4364920000003

$$$$
