Ferrocene012_allyl_cs_CONF_0001.xyz
     RDKit          3D

 94100  0  0  1  0  0  0  0  0999 V2000
    0.7088    1.0281   -2.8510 C   0  0  0  0  0  3  0  0  0  0  0  0
    1.1357    2.0406   -1.9640 C   0  0  1  0  0  0  0  0  0  0  0  0
    2.2342    1.8409   -1.0715 C   0  0  0  0  0  3  0  0  0  0  0  0
    0.5330    2.9514   -1.8590 H   0  0  0  0  0  0  0  0  0  0  0  0
    0.6321    0.3635   -0.6321 Pd  0  0  0  0  0  1  0  0  0  0  0  0
    1.3855   -0.2875    1.4925 P   0  0  0  0  0  0  0  0  0  0  0  0
   -1.4259   -0.7774   -0.7121 P   0  0  0  0  0  0  0  0  0  0  0  0
    1.4304    0.2262   -3.0722 H   0  0  0  0  0  0  0  0  0  0  0  0
    3.0392    1.1654   -1.3970 H   0  0  0  0  0  0  0  0  0  0  0  0
   -2.5056    1.2667   -5.6953 C   0  0  0  0  0  0  0  0  0  0  0  0
   -1.6562    0.1511   -5.6658 C   0  0  0  0  0  0  0  0  0  0  0  0
   -0.6184    0.0872   -4.7297 C   0  0  0  0  0  0  0  0  0  0  0  0
   -0.4124    1.1295   -3.7957 C   0  0  0  0  0  0  0  0  0  0  0  0
   -1.2814    2.2455   -3.8366 C   0  0  0  0  0  0  0  0  0  0  0  0
   -2.3105    2.3135   -4.7789 C   0  0  0  0  0  0  0  0  0  0  0  0
   -3.3139    1.3244   -6.4314 H   0  0  0  0  0  0  0  0  0  0  0  0
   -1.7948   -0.6666   -6.3805 H   0  0  0  0  0  0  0  0  0  0  0  0
    0.0531   -0.7772   -4.7282 H   0  0  0  0  0  0  0  0  0  0  0  0
   -1.1520    3.0713   -3.1316 H   0  0  0  0  0  0  0  0  0  0  0  0
   -2.9686    3.1875   -4.7973 H   0  0  0  0  0  0  0  0  0  0  0  0
    3.3971    4.8776    1.7493 C   0  0  0  0  0  0  0  0  0  0  0  0
    2.0357    4.6555    1.4841 C   0  0  0  0  0  0  0  0  0  0  0  0
    1.6506    3.6598    0.5809 C   0  0  0  0  0  0  0  0  0  0  0  0
    2.6180    2.8653   -0.0784 C   0  0  0  0  0  0  0  0  0  0  0  0
    3.9804    3.0860    0.2139 C   0  0  0  0  0  0  0  0  0  0  0  0
    4.3656    4.0870    1.1141 C   0  0  0  0  0  0  0  0  0  0  0  0
    3.6995    5.6581    2.4550 H   0  0  0  0  0  0  0  0  0  0  0  0
    1.2730    5.2598    1.9865 H   0  0  0  0  0  0  0  0  0  0  0  0
    0.5853    3.4825    0.3906 H   0  0  0  0  0  0  0  0  0  0  0  0
    4.7424    2.4723   -0.2773 H   0  0  0  0  0  0  0  0  0  0  0  0
    5.4281    4.2456    1.3240 H   0  0  0  0  0  0  0  0  0  0  0  0
   -1.7521   -0.6046    2.6984 Fe  0  0  0  0  0  2  0  0  0  0  0  0
    0.1309    0.0953    2.7473 C   0  0  1  0  0  0  0  0  0  0  0  0
   -0.1829   -0.5952    3.9800 C   0  0  0  0  0  3  0  0  0  0  0  0
    0.3160   -1.4857    4.3636 H   0  0  0  0  0  0  0  0  0  0  0  0
   -1.3025    0.0661    4.5828 C   0  0  0  0  0  0  0  0  0  0  0  0
   -1.7991   -0.2399    5.5055 H   0  0  0  0  0  0  0  0  0  0  0  0
   -1.6913    1.1603    3.7416 C   0  0  0  0  0  0  0  0  0  0  0  0
   -2.5298    1.8367    3.9160 H   0  0  0  0  0  0  0  0  0  0  0  0
   -0.8128    1.1868    2.6109 C   0  0  0  0  0  3  0  0  0  0  0  0
    2.9331    0.4395    2.1620 C   0  0  0  0  0  0  0  0  0  0  0  0
    4.1720   -0.0241    1.6708 C   0  0  0  0  0  0  0  0  0  0  0  0
    4.2003   -0.8015    0.8985 H   0  0  0  0  0  0  0  0  0  0  0  0
    5.3683    0.4851    2.1911 C   0  0  0  0  0  0  0  0  0  0  0  0
    6.3267    0.1103    1.8170 H   0  0  0  0  0  0  0  0  0  0  0  0
    5.3375    1.4675    3.1936 C   0  0  0  0  0  0  0  0  0  0  0  0
    6.2733    1.8621    3.6026 H   0  0  0  0  0  0  0  0  0  0  0  0
    4.1076    1.9471    3.6657 C   0  0  0  0  0  0  0  0  0  0  0  0
    4.0793    2.7226    4.4377 H   0  0  0  0  0  0  0  0  0  0  0  0
    2.9056    1.4374    3.1540 C   0  0  0  0  0  0  0  0  0  0  0  0
    1.9494    1.8109    3.5329 H   0  0  0  0  0  0  0  0  0  0  0  0
    1.7243   -2.0905    1.6267 C   0  0  0  0  0  0  0  0  0  0  0  0
    2.2949   -2.6310    2.7991 C   0  0  0  0  0  0  0  0  0  0  0  0
    2.5814   -1.9713    3.6251 H   0  0  0  0  0  0  0  0  0  0  0  0
    2.5160   -4.0108    2.8990 C   0  0  0  0  0  0  0  0  0  0  0  0
    2.9533   -4.4250    3.8135 H   0  0  0  0  0  0  0  0  0  0  0  0
    2.1899   -4.8598    1.8282 C   0  0  0  0  0  0  0  0  0  0  0  0
    2.3680   -5.9370    1.9109 H   0  0  0  0  0  0  0  0  0  0  0  0
    1.6531   -4.3242    0.6486 C   0  0  0  0  0  0  0  0  0  0  0  0
    1.4107   -4.9752   -0.1978 H   0  0  0  0  0  0  0  0  0  0  0  0
    1.4265   -2.9439    0.5481 C   0  0  0  0  0  0  0  0  0  0  0  0
    1.0074   -2.5268   -0.3720 H   0  0  0  0  0  0  0  0  0  0  0  0
   -2.2320   -1.2756    0.8525 C   0  0  0  0  0  0  0  0  0  0  0  0
   -3.3813   -0.6554    1.4759 C   0  0  0  0  0  3  0  0  0  0  0  0
   -3.9302    0.2036    1.0886 H   0  0  0  0  0  0  0  0  0  0  0  0
   -3.6589   -1.3606    2.6911 C   0  0  0  0  0  0  0  0  0  0  0  0
   -4.4491   -1.1145    3.4027 H   0  0  0  0  0  0  0  0  0  0  0  0
   -2.6983   -2.4156    2.8293 C   0  0  0  0  0  0  0  0  0  0  0  0
   -2.6282   -3.1150    3.6643 H   0  0  0  0  0  0  0  0  0  0  0  0
   -1.8125   -2.3696    1.7041 C   0  0  0  0  0  3  0  0  0  0  0  0
   -2.6911    0.3620   -1.4112 C   0  0  0  0  0  0  0  0  0  0  0  0
   -2.7425    1.6716   -0.8863 C   0  0  0  0  0  0  0  0  0  0  0  0
   -2.0011    1.9864   -0.1430 H   0  0  0  0  0  0  0  0  0  0  0  0
   -3.7406    2.5619   -1.3024 C   0  0  0  0  0  0  0  0  0  0  0  0
   -3.7816    3.5713   -0.8799 H   0  0  0  0  0  0  0  0  0  0  0  0
   -4.6793    2.1603   -2.2656 C   0  0  0  0  0  0  0  0  0  0  0  0
   -5.4579    2.8557   -2.5956 H   0  0  0  0  0  0  0  0  0  0  0  0
   -4.6069    0.8732   -2.8174 C   0  0  0  0  0  0  0  0  0  0  0  0
   -5.3218    0.5649   -3.5871 H   0  0  0  0  0  0  0  0  0  0  0  0
   -3.6196   -0.0280   -2.3927 C   0  0  0  0  0  0  0  0  0  0  0  0
   -3.5714   -1.0287   -2.8320 H   0  0  0  0  0  0  0  0  0  0  0  0
   -1.4983   -2.3196   -1.7050 C   0  0  0  0  0  0  0  0  0  0  0  0
   -0.4376   -2.6340   -2.5764 C   0  0  0  0  0  0  0  0  0  0  0  0
    0.4202   -1.9562   -2.6461 H   0  0  0  0  0  0  0  0  0  0  0  0
   -0.4670   -3.8122   -3.3349 C   0  0  0  0  0  0  0  0  0  0  0  0
    0.3641   -4.0493   -4.0074 H   0  0  0  0  0  0  0  0  0  0  0  0
   -1.5584   -4.6870   -3.2252 C   0  0  0  0  0  0  0  0  0  0  0  0
   -1.5826   -5.6091   -3.8150 H   0  0  0  0  0  0  0  0  0  0  0  0
   -2.6153   -4.3856   -2.3512 C   0  0  0  0  0  0  0  0  0  0  0  0
   -3.4633   -5.0720   -2.2586 H   0  0  0  0  0  0  0  0  0  0  0  0
   -2.5868   -3.2102   -1.5888 C   0  0  0  0  0  0  0  0  0  0  0  0
   -3.4068   -2.9860   -0.8981 H   0  0  0  0  0  0  0  0  0  0  0  0
   -0.8351    1.8979    1.7838 H   0  0  0  0  0  0  0  0  0  0  0  0
   -0.9720   -3.0397    1.5211 H   0  0  0  0  0  0  0  0  0  0  0  0
  1  2  1  0
  2  4  1  6
  2  3  1  0
  2  5  1  0
  3 24  1  0
  6 52  1  0
  6 41  1  0
 33  6  1  6
  7 63  1  0
  8  1  1  0
  9  3  1  0
 10 11  2  0
 10 15  1  0
 11 12  1  0
 12 18  1  0
 12 13  2  0
 13  1  1  0
 14 13  1  0
 14 19  1  0
 15 14  2  0
 16 10  1  0
 17 11  1  0
 20 15  1  0
 21 27  1  0
 22 21  1  0
 22 28  1  0
 23 22  2  0
 24 25  2  0
 24 23  1  0
 25 26  1  0
 26 31  1  0
 26 21  2  0
 29 23  1  0
 30 25  1  0
 33 32  1  0
 33 34  1  0
 34 35  1  0
 34 36  1  0
 36 37  1  0
 38 39  1  0
 38 36  2  0
 40 33  1  0
 40 38  1  0
 41 50  1  0
 42 41  2  0
 42 44  1  0
 43 42  1  0
 44 46  2  0
 45 44  1  0
 46 47  1  0
 46 48  1  0
 48 49  1  0
 50 51  1  0
 50 48  2  0
 52 53  1  0
 53 55  2  0
 53 54  1  0
 55 56  1  0
 57 58  1  0
 57 55  1  0
 59 57  2  0
 60 59  1  0
 61 59  1  0
 61 52  2  0
 62 61  1  0
 63 64  1  0
 63 70  1  0
 63 32  1  0
 64 66  1  0
 65 64  1  0
 66 68  2  0
 66 67  1  0
 68 69  1  0
 70 68  1  0
 71 72  1  0
 71  7  1  0
 72 73  1  0
 74 72  2  0
 74 75  1  0
 76 74  1  0
 77 76  1  0
 78 80  1  0
 78 76  2  0
 79 78  1  0
 80 71  2  0
 81 80  1  0
 82 91  1  0
 82  7  1  0
 83 82  2  0
 84 83  1  0
 85 87  2  0
 85 83  1  0
 86 85  1  0
 87 89  1  0
 88 87  1  0
 89 90  1  0
 89 91  2  0
 91 92  1  0
 93 40  1  0
 94 70  1  0
M  END
>  <Energy>  (1) 
-3967.4610439999997

$$$$
Ferrocene012_allyl_cs_CONF_0002.xyz
     RDKit          3D

 94100  0  0  1  0  0  0  0  0999 V2000
    1.7639    2.4525   -0.6307 C   0  0  0  0  0  3  0  0  0  0  0  0
    1.1803    2.0816   -1.8636 C   0  0  1  0  0  0  0  0  0  0  0  0
   -0.2227    2.2215   -2.0891 C   0  0  0  0  0  3  0  0  0  0  0  0
    1.7864    1.5625   -2.6179 H   0  0  0  0  0  0  0  0  0  0  0  0
    0.1268    0.8460   -0.3787 Pd  0  0  0  0  0  1  0  0  0  0  0  0
   -1.9921   -0.1726   -0.4203 P   0  0  0  0  0  0  0  0  0  0  0  0
    1.1212   -0.3420    1.4044 P   0  0  0  0  0  0  0  0  0  0  0  0
    1.1947    3.1566   -0.0042 H   0  0  0  0  0  0  0  0  0  0  0  0
   -0.7425    3.0312   -1.5546 H   0  0  0  0  0  0  0  0  0  0  0  0
    5.9239    2.2567    0.4382 C   0  0  0  0  0  0  0  0  0  0  0  0
    5.0407    3.0993    1.1281 C   0  0  0  0  0  0  0  0  0  0  0  0
    3.6884    3.1403    0.7720 C   0  0  0  0  0  0  0  0  0  0  0  0
    3.1905    2.3480   -0.2872 C   0  0  0  0  0  0  0  0  0  0  0  0
    4.0973    1.5150   -0.9838 C   0  0  0  0  0  0  0  0  0  0  0  0
    5.4458    1.4657   -0.6204 C   0  0  0  0  0  0  0  0  0  0  0  0
    6.9816    2.2179    0.7181 H   0  0  0  0  0  0  0  0  0  0  0  0
    5.4030    3.7231    1.9511 H   0  0  0  0  0  0  0  0  0  0  0  0
    3.0026    3.7939    1.3204 H   0  0  0  0  0  0  0  0  0  0  0  0
    3.7501    0.9003   -1.8195 H   0  0  0  0  0  0  0  0  0  0  0  0
    6.1308    0.8103   -1.1680 H   0  0  0  0  0  0  0  0  0  0  0  0
   -2.0082    1.0387   -5.8201 C   0  0  0  0  0  0  0  0  0  0  0  0
   -1.0624    0.2020   -5.2040 C   0  0  0  0  0  0  0  0  0  0  0  0
   -0.4913    0.5695   -3.9812 C   0  0  0  0  0  0  0  0  0  0  0  0
   -0.8563    1.7810   -3.3497 C   0  0  0  0  0  0  0  0  0  0  0  0
   -1.8277    2.5978   -3.9647 C   0  0  0  0  0  0  0  0  0  0  0  0
   -2.3909    2.2338   -5.1942 C   0  0  0  0  0  0  0  0  0  0  0  0
   -2.4521    0.7529   -6.7792 H   0  0  0  0  0  0  0  0  0  0  0  0
   -0.7737   -0.7422   -5.6777 H   0  0  0  0  0  0  0  0  0  0  0  0
    0.2278   -0.0994   -3.4929 H   0  0  0  0  0  0  0  0  0  0  0  0
   -2.1375    3.5276   -3.4764 H   0  0  0  0  0  0  0  0  0  0  0  0
   -3.1387    2.8832   -5.6605 H   0  0  0  0  0  0  0  0  0  0  0  0
   -1.8788   -0.9536    2.8819 Fe  0  0  0  0  0  2  0  0  0  0  0  0
   -2.7125   -0.1341    1.2524 C   0  0  0  0  0  0  0  0  0  0  0  0
   -2.3747    0.8898    2.2218 C   0  0  0  0  0  0  0  0  0  0  0  0
   -1.6873    1.7205    2.0454 H   0  0  0  0  0  0  0  0  0  0  0  0
   -3.0833    0.6104    3.4351 C   0  0  0  0  0  0  0  0  0  0  0  0
   -3.0168    1.1835    4.3614 H   0  0  0  0  0  0  0  0  0  0  0  0
   -3.8639   -0.5746    3.2304 C   0  0  0  0  0  0  0  0  0  0  0  0
   -4.4899   -1.0659    3.9776 H   0  0  0  0  0  0  0  0  0  0  0  0
   -3.6437   -1.0391    1.8925 C   0  0  0  0  0  0  0  0  0  0  0  0
   -1.9590   -1.9264   -0.9523 C   0  0  0  0  0  0  0  0  0  0  0  0
   -3.1340   -2.7055   -1.0257 C   0  0  0  0  0  0  0  0  0  0  0  0
   -4.1093   -2.2535   -0.8183 H   0  0  0  0  0  0  0  0  0  0  0  0
   -3.0579   -4.0562   -1.3898 C   0  0  0  0  0  0  0  0  0  0  0  0
   -3.9724   -4.6562   -1.4411 H   0  0  0  0  0  0  0  0  0  0  0  0
   -1.8164   -4.6388   -1.6949 C   0  0  0  0  0  0  0  0  0  0  0  0
   -1.7635   -5.6954   -1.9772 H   0  0  0  0  0  0  0  0  0  0  0  0
   -0.6488   -3.8632   -1.6500 C   0  0  0  0  0  0  0  0  0  0  0  0
    0.3222   -4.3054   -1.8958 H   0  0  0  0  0  0  0  0  0  0  0  0
   -0.7223   -2.5114   -1.2858 C   0  0  0  0  0  0  0  0  0  0  0  0
    0.1883   -1.9061   -1.2443 H   0  0  0  0  0  0  0  0  0  0  0  0
   -3.3027    0.6074   -1.4472 C   0  0  0  0  0  0  0  0  0  0  0  0
   -3.7063    0.0620   -2.6814 C   0  0  0  0  0  0  0  0  0  0  0  0
   -3.2394   -0.8505   -3.0629 H   0  0  0  0  0  0  0  0  0  0  0  0
   -4.7079    0.6936   -3.4322 C   0  0  0  0  0  0  0  0  0  0  0  0
   -5.0156    0.2605   -4.3892 H   0  0  0  0  0  0  0  0  0  0  0  0
   -5.3012    1.8761   -2.9695 C   0  0  0  0  0  0  0  0  0  0  0  0
   -6.0845    2.3646   -3.5582 H   0  0  0  0  0  0  0  0  0  0  0  0
   -4.8837    2.4370   -1.7521 C   0  0  0  0  0  0  0  0  0  0  0  0
   -5.3421    3.3617   -1.3863 H   0  0  0  0  0  0  0  0  0  0  0  0
   -3.8887    1.8080   -0.9929 C   0  0  0  0  0  0  0  0  0  0  0  0
   -3.5822    2.2421   -0.0346 H   0  0  0  0  0  0  0  0  0  0  0  0
    0.0916   -1.2724    2.5943 C   0  0  1  0  0  0  0  0  0  0  0  0
   -0.6694   -2.4656    2.2865 C   0  0  0  0  0  0  0  0  0  0  0  0
   -0.6976   -2.9766    1.3235 H   0  0  0  0  0  0  0  0  0  0  0  0
   -1.3791   -2.8512    3.4696 C   0  0  0  0  0  0  0  0  0  0  0  0
   -2.0623   -3.6984    3.5528 H   0  0  0  0  0  0  0  0  0  0  0  0
   -1.0716   -1.9108    4.5072 C   0  0  0  0  0  0  0  0  0  0  0  0
   -1.4785   -1.9167    5.5199 H   0  0  0  0  0  0  0  0  0  0  0  0
   -0.1639   -0.9367    3.9783 C   0  0  0  0  0  0  0  0  0  0  0  0
    2.2763   -1.6334    0.7933 C   0  0  0  0  0  0  0  0  0  0  0  0
    2.7147   -1.5920   -0.5443 C   0  0  0  0  0  0  0  0  0  0  0  0
    2.3529   -0.7924   -1.2004 H   0  0  0  0  0  0  0  0  0  0  0  0
    3.5864   -2.5720   -1.0375 C   0  0  0  0  0  0  0  0  0  0  0  0
    3.9196   -2.5319   -2.0799 H   0  0  0  0  0  0  0  0  0  0  0  0
    4.0257   -3.6041   -0.1946 C   0  0  0  0  0  0  0  0  0  0  0  0
    4.7053   -4.3726   -0.5775 H   0  0  0  0  0  0  0  0  0  0  0  0
    3.5879   -3.6565    1.1386 C   0  0  0  0  0  0  0  0  0  0  0  0
    3.9249   -4.4652    1.7953 H   0  0  0  0  0  0  0  0  0  0  0  0
    2.7138   -2.6791    1.6334 C   0  0  0  0  0  0  0  0  0  0  0  0
    2.3654   -2.7313    2.6704 H   0  0  0  0  0  0  0  0  0  0  0  0
    2.0928    0.7363    2.5337 C   0  0  0  0  0  0  0  0  0  0  0  0
    1.4549    1.8862    3.0456 C   0  0  0  0  0  0  0  0  0  0  0  0
    0.4365    2.1318    2.7240 H   0  0  0  0  0  0  0  0  0  0  0  0
    2.1146    2.7093    3.9674 C   0  0  0  0  0  0  0  0  0  0  0  0
    1.6082    3.5931    4.3692 H   0  0  0  0  0  0  0  0  0  0  0  0
    3.4256    2.4034    4.3668 C   0  0  0  0  0  0  0  0  0  0  0  0
    3.9446    3.0485    5.0832 H   0  0  0  0  0  0  0  0  0  0  0  0
    4.0729    1.2787    3.8360 C   0  0  0  0  0  0  0  0  0  0  0  0
    5.1028    1.0491    4.1280 H   0  0  0  0  0  0  0  0  0  0  0  0
    3.4116    0.4430    2.9239 C   0  0  0  0  0  0  0  0  0  0  0  0
    3.9291   -0.4277    2.5105 H   0  0  0  0  0  0  0  0  0  0  0  0
   -4.0731   -1.9401    1.4552 H   0  0  0  0  0  0  0  0  0  0  0  0
    0.2562   -0.0865    4.5168 H   0  0  0  0  0  0  0  0  0  0  0  0
  1 13  1  0
  1  8  1  0
  2  1  1  0
  2  5  1  0
  3  2  1  0
  3  9  1  0
  2  4  1  6
  6 33  1  0
  7 82  1  0
 63  7  1  6
 10 16  1  0
 10 11  1  0
 11 17  1  0
 12 11  2  0
 12 18  1  0
 13 12  1  0
 14 15  1  0
 14 13  2  0
 15 10  2  0
 19 14  1  0
 20 15  1  0
 21 22  2  0
 21 26  1  0
 22 23  1  0
 23 29  1  0
 23 24  2  0
 24  3  1  0
 25 30  1  0
 25 24  1  0
 26 25  2  0
 27 21  1  0
 28 22  1  0
 31 26  1  0
 33 40  1  0
 33 34  1  0
 33 32  1  0
 34 36  2  0
 35 34  1  0
 36 37  1  0
 38 36  1  0
 38 39  1  0
 40 38  2  0
 41  6  1  0
 42 41  1  0
 42 43  1  0
 44 42  2  0
 45 44  1  0
 46 48  2  0
 46 44  1  0
 47 46  1  0
 48 50  1  0
 49 48  1  0
 50 51  1  0
 50 41  2  0
 52 61  1  0
 52  6  1  0
 53 52  2  0
 54 53  1  0
 55 57  2  0
 55 53  1  0
 56 55  1  0
 57 59  1  0
 58 57  1  0
 59 60  1  0
 59 61  2  0
 61 62  1  0
 63 32  1  0
 63 70  1  0
 64 63  1  0
 64 66  2  0
 65 64  1  0
 66 67  1  0
 66 68  1  0
 68 69  1  0
 70 68  2  0
 70 94  1  0
 71  7  1  0
 71 80  1  0
 72 71  2  0
 73 72  1  0
 74 72  1  0
 74 76  2  0
 75 74  1  0
 76 78  1  0
 77 76  1  0
 78 80  2  0
 78 79  1  0
 80 81  1  0
 82 91  2  0
 82 83  1  0
 83 85  2  0
 84 83  1  0
 85 87  1  0
 85 86  1  0
 87 88  1  0
 89 90  1  0
 89 87  2  0
 91 89  1  0
 92 91  1  0
 93 40  1  0
M  END
>  <Energy>  (2) 
-3967.4600549999996

$$$$
Ferrocene012_allyl_cs_CONF_0005.xyz
     RDKit          3D

 94100  0  0  1  0  0  0  0  0999 V2000
    1.8008    2.3982   -0.5922 C   0  0  0  0  0  3  0  0  0  0  0  0
    1.2424    2.0487   -1.8590 C   0  0  1  0  0  0  0  0  0  0  0  0
   -0.1327    2.2311   -2.1302 C   0  0  0  0  0  3  0  0  0  0  0  0
    1.8729    1.5160   -2.5831 H   0  0  0  0  0  0  0  0  0  0  0  0
    0.2303    0.8507   -0.3146 Pd  0  0  0  0  0  1  0  0  0  0  0  0
   -1.5994   -0.6053   -0.6495 P   0  0  0  0  0  0  0  0  0  0  0  0
    0.9381    0.1362    1.8103 P   0  0  0  0  0  0  0  0  0  0  0  0
    1.3268    3.2244   -0.0406 H   0  0  0  0  0  0  0  0  0  0  0  0
   -0.6733    2.9502   -1.4954 H   0  0  0  0  0  0  0  0  0  0  0  0
    5.9761    1.7818    0.2417 C   0  0  0  0  0  0  0  0  0  0  0  0
    5.2386    0.7758   -0.4050 C   0  0  0  0  0  0  0  0  0  0  0  0
    3.8761    0.9600   -0.6621 C   0  0  0  0  0  0  0  0  0  0  0  0
    3.2241    2.1541   -0.2764 C   0  0  0  0  0  0  0  0  0  0  0  0
    3.9694    3.1438    0.3973 C   0  0  0  0  0  0  0  0  0  0  0  0
    5.3359    2.9625    0.6450 C   0  0  0  0  0  0  0  0  0  0  0  0
    7.0436    1.6394    0.4393 H   0  0  0  0  0  0  0  0  0  0  0  0
    5.7279   -0.1569   -0.7048 H   0  0  0  0  0  0  0  0  0  0  0  0
    3.3000    0.1609   -1.1444 H   0  0  0  0  0  0  0  0  0  0  0  0
    3.4730    4.0640    0.7229 H   0  0  0  0  0  0  0  0  0  0  0  0
    5.9004    3.7439    1.1636 H   0  0  0  0  0  0  0  0  0  0  0  0
   -2.1931    1.3719   -5.8051 C   0  0  0  0  0  0  0  0  0  0  0  0
   -0.9514    0.7642   -5.5520 C   0  0  0  0  0  0  0  0  0  0  0  0
   -0.2655    1.0306   -4.3640 C   0  0  0  0  0  0  0  0  0  0  0  0
   -0.8120    1.9025   -3.3930 C   0  0  0  0  0  0  0  0  0  0  0  0
   -2.0587    2.5101   -3.6660 C   0  0  0  0  0  0  0  0  0  0  0  0
   -2.7400    2.2516   -4.8602 C   0  0  0  0  0  0  0  0  0  0  0  0
   -2.7264    1.1629   -6.7381 H   0  0  0  0  0  0  0  0  0  0  0  0
   -0.5146    0.0820   -6.2885 H   0  0  0  0  0  0  0  0  0  0  0  0
    0.7062    0.5570   -4.1951 H   0  0  0  0  0  0  0  0  0  0  0  0
   -2.4951    3.1914   -2.9288 H   0  0  0  0  0  0  0  0  0  0  0  0
   -3.7035    2.7350   -5.0493 H   0  0  0  0  0  0  0  0  0  0  0  0
   -2.1625   -0.9333    2.6860 Fe  0  0  0  0  0  2  0  0  0  0  0  0
   -2.3626   -1.4879    0.7575 C   0  0  1  0  0  0  0  0  0  0  0  0
   -3.6616   -1.2378    1.3435 C   0  0  0  0  0  3  0  0  0  0  0  0
   -4.3854   -0.4987    0.9983 H   0  0  0  0  0  0  0  0  0  0  0  0
   -3.8187   -2.1228    2.4591 C   0  0  0  0  0  0  0  0  0  0  0  0
   -4.6825   -2.1589    3.1254 H   0  0  0  0  0  0  0  0  0  0  0  0
   -2.6348   -2.9236    2.5701 C   0  0  0  0  0  0  0  0  0  0  0  0
   -2.4382   -3.6759    3.3361 H   0  0  0  0  0  0  0  0  0  0  0  0
   -1.7304   -2.5388    1.5279 C   0  0  0  0  0  3  0  0  0  0  0  0
   -1.1657   -1.9806   -1.7878 C   0  0  0  0  0  0  0  0  0  0  0  0
   -0.0091   -1.8781   -2.5845 C   0  0  0  0  0  0  0  0  0  0  0  0
    0.6166   -0.9824   -2.5044 H   0  0  0  0  0  0  0  0  0  0  0  0
    0.3487   -2.9163   -3.4549 C   0  0  0  0  0  0  0  0  0  0  0  0
    1.2507   -2.8273   -4.0694 H   0  0  0  0  0  0  0  0  0  0  0  0
   -0.4485   -4.0684   -3.5330 C   0  0  0  0  0  0  0  0  0  0  0  0
   -0.1705   -4.8820   -4.2109 H   0  0  0  0  0  0  0  0  0  0  0  0
   -1.5992   -4.1815   -2.7364 C   0  0  0  0  0  0  0  0  0  0  0  0
   -2.2185   -5.0828   -2.7919 H   0  0  0  0  0  0  0  0  0  0  0  0
   -1.9581   -3.1455   -1.8633 C   0  0  0  0  0  0  0  0  0  0  0  0
   -2.8501   -3.2438   -1.2354 H   0  0  0  0  0  0  0  0  0  0  0  0
   -3.0613    0.2374   -1.3812 C   0  0  0  0  0  0  0  0  0  0  0  0
   -3.5112    1.4205   -0.7579 C   0  0  0  0  0  0  0  0  0  0  0  0
   -2.9600    1.8287    0.0967 H   0  0  0  0  0  0  0  0  0  0  0  0
   -4.6618    2.0707   -1.2224 C   0  0  0  0  0  0  0  0  0  0  0  0
   -5.0111    2.9821   -0.7258 H   0  0  0  0  0  0  0  0  0  0  0  0
   -5.3588    1.5569   -2.3278 C   0  0  0  0  0  0  0  0  0  0  0  0
   -6.2555    2.0666   -2.6952 H   0  0  0  0  0  0  0  0  0  0  0  0
   -4.8970    0.3979   -2.9674 C   0  0  0  0  0  0  0  0  0  0  0  0
   -5.4255    0.0060   -3.8424 H   0  0  0  0  0  0  0  0  0  0  0  0
   -3.7534   -0.2648   -2.4977 C   0  0  0  0  0  0  0  0  0  0  0  0
   -3.3972   -1.1637   -3.0095 H   0  0  0  0  0  0  0  0  0  0  0  0
   -0.4814    0.1271    2.9517 C   0  0  1  0  0  0  0  0  0  0  0  0
   -0.7449   -0.6969    4.1126 C   0  0  0  0  0  0  0  0  0  0  0  0
   -0.1070   -1.4914    4.4994 H   0  0  0  0  0  0  0  0  0  0  0  0
   -2.0249   -0.3242    4.6390 C   0  0  0  0  0  0  0  0  0  0  0  0
   -2.5196   -0.7902    5.4932 H   0  0  0  0  0  0  0  0  0  0  0  0
   -2.5645    0.7241    3.8234 C   0  0  0  0  0  0  0  0  0  0  0  0
   -3.5374    1.2015    3.9517 H   0  0  0  0  0  0  0  0  0  0  0  0
   -1.6197    1.0093    2.7849 C   0  0  0  0  0  0  0  0  0  0  0  0
    1.6447   -1.5551    1.8159 C   0  0  0  0  0  0  0  0  0  0  0  0
    2.1116   -2.1649    3.0004 C   0  0  0  0  0  0  0  0  0  0  0  0
    2.1150   -1.6081    3.9431 H   0  0  0  0  0  0  0  0  0  0  0  0
    2.5961   -3.4791    2.9683 C   0  0  0  0  0  0  0  0  0  0  0  0
    2.9529   -3.9479    3.8912 H   0  0  0  0  0  0  0  0  0  0  0  0
    2.6311   -4.1918    1.7582 C   0  0  0  0  0  0  0  0  0  0  0  0
    3.0091   -5.2193    1.7402 H   0  0  0  0  0  0  0  0  0  0  0  0
    2.1939   -3.5823    0.5733 C   0  0  0  0  0  0  0  0  0  0  0  0
    2.2263   -4.1261   -0.3765 H   0  0  0  0  0  0  0  0  0  0  0  0
    1.7085   -2.2674    0.6027 C   0  0  0  0  0  0  0  0  0  0  0  0
    1.3603   -1.7923   -0.3195 H   0  0  0  0  0  0  0  0  0  0  0  0
    2.1704    1.1686    2.7023 C   0  0  0  0  0  0  0  0  0  0  0  0
    1.7453    2.3959    3.2539 C   0  0  0  0  0  0  0  0  0  0  0  0
    0.6969    2.7034    3.1701 H   0  0  0  0  0  0  0  0  0  0  0  0
    2.6556    3.2150    3.9338 C   0  0  0  0  0  0  0  0  0  0  0  0
    2.3148    4.1600    4.3695 H   0  0  0  0  0  0  0  0  0  0  0  0
    3.9957    2.8188    4.0682 C   0  0  0  0  0  0  0  0  0  0  0  0
    4.7046    3.4562    4.6066 H   0  0  0  0  0  0  0  0  0  0  0  0
    4.4249    1.6091    3.5053 C   0  0  0  0  0  0  0  0  0  0  0  0
    5.4722    1.3026    3.5904 H   0  0  0  0  0  0  0  0  0  0  0  0
    3.5212    0.7871    2.8171 C   0  0  0  0  0  0  0  0  0  0  0  0
    3.8734   -0.1456    2.3677 H   0  0  0  0  0  0  0  0  0  0  0  0
   -0.7408   -2.9594    1.3466 H   0  0  0  0  0  0  0  0  0  0  0  0
   -1.7285    1.7526    1.9915 H   0  0  0  0  0  0  0  0  0  0  0  0
  1 13  1  0
  1  8  1  0
  2  1  1  0
  2  5  1  0
  3  2  1  0
  3  9  1  0
  2  4  1  6
 33  6  1  1
  7 71  1  0
  7 82  1  0
 63  7  1  6
 10 16  1  0
 10 15  1  0
 11 10  2  0
 12 11  1  0
 12 13  2  0
 13 14  1  0
 14 15  2  0
 14 19  1  0
 15 20  1  0
 17 11  1  0
 18 12  1  0
 21 22  2  0
 21 26  1  0
 22 23  1  0
 23 29  1  0
 23 24  2  0
 24  3  1  0
 25 24  1  0
 25 30  1  0
 26 25  2  0
 27 21  1  0
 28 22  1  0
 31 26  1  0
 33 34  1  0
 33 40  1  0
 33 32  1  0
 34 36  1  0
 35 34  1  0
 36 38  2  0
 36 37  1  0
 38 39  1  0
 40 38  1  0
 41  6  1  0
 42 43  1  0
 42 41  2  0
 44 42  1  0
 45 44  1  0
 46 44  2  0
 46 48  1  0
 47 46  1  0
 48 50  2  0
 49 48  1  0
 50 41  1  0
 50 51  1  0
 52 53  1  0
 52  6  1  0
 53 54  1  0
 55 53  2  0
 55 56  1  0
 57 55  1  0
 58 57  1  0
 59 61  1  0
 59 57  2  0
 60 59  1  0
 61 52  2  0
 62 61  1  0
 63 32  1  0
 63 64  1  0
 64 65  1  0
 64 66  2  0
 66 67  1  0
 68 69  1  0
 68 66  1  0
 70 63  1  0
 70 68  2  0
 71 72  1  0
 72 73  1  0
 74 72  2  0
 74 75  1  0
 76 74  1  0
 77 76  1  0
 78 80  1  0
 78 76  2  0
 79 78  1  0
 80 71  2  0
 81 80  1  0
 82 91  2  0
 82 83  1  0
 83 85  2  0
 84 83  1  0
 85 87  1  0
 85 86  1  0
 87 88  1  0
 89 90  1  0
 89 87  2  0
 91 89  1  0
 92 91  1  0
 93 40  1  0
 94 70  1  0
M  END
>  <Energy>  (3) 
-3967.460128

$$$$
Ferrocene012_allyl_cs_CONF_0008.xyz
     RDKit          3D

 94100  0  0  1  0  0  0  0  0999 V2000
    0.5320   -0.4504   -3.0065 C   0  0  0  0  0  3  0  0  0  0  0  0
    1.5934    0.3634   -2.5500 C   0  0  1  0  0  0  0  0  0  0  0  0
    2.5744   -0.1338   -1.6397 C   0  0  0  0  0  3  0  0  0  0  0  0
    1.6015    1.4331   -2.7969 H   0  0  0  0  0  0  0  0  0  0  0  0
    0.5613   -0.2471   -0.7038 Pd  0  0  0  0  0  1  0  0  0  0  0  0
    1.3135   -0.3794    1.5192 P   0  0  0  0  0  0  0  0  0  0  0  0
   -1.7752   -0.2929   -0.3565 P   0  0  0  0  0  0  0  0  0  0  0  0
    0.6699   -1.5399   -2.9278 H   0  0  0  0  0  0  0  0  0  0  0  0
    2.8052   -1.2093   -1.6801 H   0  0  0  0  0  0  0  0  0  0  0  0
   -2.5650    0.6505   -5.7794 C   0  0  0  0  0  0  0  0  0  0  0  0
   -2.2704   -0.6965   -5.5251 C   0  0  0  0  0  0  0  0  0  0  0  0
   -1.2663   -1.0345   -4.6114 C   0  0  0  0  0  0  0  0  0  0  0  0
   -0.5283   -0.0347   -3.9379 C   0  0  0  0  0  0  0  0  0  0  0  0
   -0.8260    1.3199   -4.2186 C   0  0  0  0  0  0  0  0  0  0  0  0
   -1.8362    1.6571   -5.1230 C   0  0  0  0  0  0  0  0  0  0  0  0
   -3.3539    0.9185   -6.4898 H   0  0  0  0  0  0  0  0  0  0  0  0
   -2.8276   -1.4888   -6.0346 H   0  0  0  0  0  0  0  0  0  0  0  0
   -1.0481   -2.0882   -4.4106 H   0  0  0  0  0  0  0  0  0  0  0  0
   -0.2623    2.1207   -3.7307 H   0  0  0  0  0  0  0  0  0  0  0  0
   -2.0551    2.7112   -5.3226 H   0  0  0  0  0  0  0  0  0  0  0  0
    5.7639    2.3896   -0.2371 C   0  0  0  0  0  0  0  0  0  0  0  0
    6.0168    1.0600   -0.6046 C   0  0  0  0  0  0  0  0  0  0  0  0
    4.9688    0.2343   -1.0304 C   0  0  0  0  0  0  0  0  0  0  0  0
    3.6517    0.7315   -1.1145 C   0  0  0  0  0  0  0  0  0  0  0  0
    3.4055    2.0679   -0.7231 C   0  0  0  0  0  0  0  0  0  0  0  0
    4.4515    2.8885   -0.2885 C   0  0  0  0  0  0  0  0  0  0  0  0
    6.5834    3.0331    0.0992 H   0  0  0  0  0  0  0  0  0  0  0  0
    7.0343    0.6596   -0.5517 H   0  0  0  0  0  0  0  0  0  0  0  0
    5.1712   -0.8055   -1.3077 H   0  0  0  0  0  0  0  0  0  0  0  0
    2.3792    2.4548   -0.7367 H   0  0  0  0  0  0  0  0  0  0  0  0
    4.2437    3.9195    0.0164 H   0  0  0  0  0  0  0  0  0  0  0  0
   -1.4740   -2.0035    2.5633 Fe  0  0  0  0  0  2  0  0  0  0  0  0
    0.5083   -1.7753    2.3679 C   0  0  1  0  0  0  0  0  0  0  0  0
    0.0598   -2.9682    1.6761 C   0  0  0  0  0  0  0  0  0  0  0  0
    0.1734   -3.1567    0.6061 H   0  0  0  0  0  0  0  0  0  0  0  0
   -0.5620   -3.8352    2.6347 C   0  0  0  0  0  0  0  0  0  0  0  0
   -1.0277   -4.7982    2.4188 H   0  0  0  0  0  0  0  0  0  0  0  0
   -0.4992   -3.1968    3.9161 C   0  0  0  0  0  0  0  0  0  0  0  0
   -0.9192   -3.5849    4.8459 H   0  0  0  0  0  0  0  0  0  0  0  0
    0.1562   -1.9318    3.7631 C   0  0  0  0  0  0  0  0  0  0  0  0
    0.9369    1.1223    2.5016 C   0  0  0  0  0  0  0  0  0  0  0  0
    1.3157    1.2428    3.8564 C   0  0  0  0  0  0  0  0  0  0  0  0
    1.9017    0.4531    4.3379 H   0  0  0  0  0  0  0  0  0  0  0  0
    0.9628    2.3868    4.5842 C   0  0  0  0  0  0  0  0  0  0  0  0
    1.2565    2.4721    5.6356 H   0  0  0  0  0  0  0  0  0  0  0  0
    0.2415    3.4235    3.9689 C   0  0  0  0  0  0  0  0  0  0  0  0
   -0.0324    4.3143    4.5437 H   0  0  0  0  0  0  0  0  0  0  0  0
   -0.1154    3.3214    2.6165 C   0  0  0  0  0  0  0  0  0  0  0  0
   -0.6689    4.1281    2.1249 H   0  0  0  0  0  0  0  0  0  0  0  0
    0.2371    2.1780    1.8860 C   0  0  0  0  0  0  0  0  0  0  0  0
   -0.0443    2.0948    0.8317 H   0  0  0  0  0  0  0  0  0  0  0  0
    3.0997   -0.7043    1.8101 C   0  0  0  0  0  0  0  0  0  0  0  0
    3.5925   -2.0046    1.5697 C   0  0  0  0  0  0  0  0  0  0  0  0
    2.9127   -2.7990    1.2420 H   0  0  0  0  0  0  0  0  0  0  0  0
    4.9480   -2.2929    1.7732 C   0  0  0  0  0  0  0  0  0  0  0  0
    5.3195   -3.3076    1.5959 H   0  0  0  0  0  0  0  0  0  0  0  0
    5.8229   -1.2885    2.2166 C   0  0  0  0  0  0  0  0  0  0  0  0
    6.8807   -1.5169    2.3829 H   0  0  0  0  0  0  0  0  0  0  0  0
    5.3402    0.0085    2.4382 C   0  0  0  0  0  0  0  0  0  0  0  0
    6.0203    0.8010    2.7659 H   0  0  0  0  0  0  0  0  0  0  0  0
    3.9862    0.3065    2.2293 C   0  0  0  0  0  0  0  0  0  0  0  0
    3.6272    1.3272    2.3884 H   0  0  0  0  0  0  0  0  0  0  0  0
   -2.4774   -0.8762    1.2269 C   0  0  1  0  0  0  0  0  0  0  0  0
   -2.3775   -0.1902    2.4996 C   0  0  0  0  0  0  0  0  0  0  0  0
   -1.9023    0.7768    2.6696 H   0  0  0  0  0  0  0  0  0  0  0  0
   -3.0072   -1.0096    3.4909 C   0  0  0  0  0  0  0  0  0  0  0  0
   -3.0717   -0.7811    4.5563 H   0  0  0  0  0  0  0  0  0  0  0  0
   -3.4960   -2.1959    2.8519 C   0  0  0  0  0  0  0  0  0  0  0  0
   -3.9982   -3.0298    3.3455 H   0  0  0  0  0  0  0  0  0  0  0  0
   -3.1778   -2.1212    1.4573 C   0  0  0  0  0  0  0  0  0  0  0  0
   -2.5240    1.3757   -0.5286 C   0  0  0  0  0  0  0  0  0  0  0  0
   -1.7817    2.4062   -1.1367 C   0  0  0  0  0  0  0  0  0  0  0  0
   -0.7667    2.1955   -1.4912 H   0  0  0  0  0  0  0  0  0  0  0  0
   -2.3260    3.6904   -1.2705 C   0  0  0  0  0  0  0  0  0  0  0  0
   -1.7398    4.4852   -1.7437 H   0  0  0  0  0  0  0  0  0  0  0  0
   -3.6191    3.9541   -0.7942 C   0  0  0  0  0  0  0  0  0  0  0  0
   -4.0464    4.9571   -0.8955 H   0  0  0  0  0  0  0  0  0  0  0  0
   -4.3632    2.9338   -0.1801 C   0  0  0  0  0  0  0  0  0  0  0  0
   -5.3698    3.1404    0.1979 H   0  0  0  0  0  0  0  0  0  0  0  0
   -3.8200    1.6492   -0.0423 C   0  0  0  0  0  0  0  0  0  0  0  0
   -4.3992    0.8603    0.4493 H   0  0  0  0  0  0  0  0  0  0  0  0
   -2.6422   -1.3847   -1.5563 C   0  0  0  0  0  0  0  0  0  0  0  0
   -2.1445   -2.6948   -1.7207 C   0  0  0  0  0  0  0  0  0  0  0  0
   -1.2439   -3.0063   -1.1792 H   0  0  0  0  0  0  0  0  0  0  0  0
   -2.7993   -3.5990   -2.5669 C   0  0  0  0  0  0  0  0  0  0  0  0
   -2.4132   -4.6174   -2.6805 H   0  0  0  0  0  0  0  0  0  0  0  0
   -3.9436   -3.1944   -3.2733 C   0  0  0  0  0  0  0  0  0  0  0  0
   -4.4536   -3.8980   -3.9393 H   0  0  0  0  0  0  0  0  0  0  0  0
   -4.4239   -1.8846   -3.1334 C   0  0  0  0  0  0  0  0  0  0  0  0
   -5.3034   -1.5590   -3.6982 H   0  0  0  0  0  0  0  0  0  0  0  0
   -3.7800   -0.9796   -2.2765 C   0  0  0  0  0  0  0  0  0  0  0  0
   -4.1582    0.0426   -2.1822 H   0  0  0  0  0  0  0  0  0  0  0  0
    0.3173   -1.2015    4.5559 H   0  0  0  0  0  0  0  0  0  0  0  0
   -3.4114   -2.8716    0.7012 H   0  0  0  0  0  0  0  0  0  0  0  0
  1  8  1  0
  1  2  1  0
  2  3  1  0
  2  5  1  0
  3 24  1  0
  2  4  1  6
  6 52  1  0
 33  6  1  1
  6 41  1  0
 63  7  1  1
  9  3  1  0
 10 11  2  0
 10 15  1  0
 11 12  1  0
 12 18  1  0
 12 13  2  0
 13  1  1  0
 14 13  1  0
 14 19  1  0
 15 14  2  0
 16 10  1  0
 17 11  1  0
 20 15  1  0
 21 27  1  0
 22 28  1  0
 22 21  2  0
 23 22  1  0
 24 23  2  0
 24 25  1  0
 25 26  2  0
 26 21  1  0
 26 31  1  0
 29 23  1  0
 30 25  1  0
 33 32  1  0
 33 40  1  0
 34 33  1  0
 34 36  2  0
 35 34  1  0
 36 38  1  0
 37 36  1  0
 38 39  1  0
 40 38  2  0
 40 93  1  0
 41 42  1  0
 42 43  1  0
 42 44  2  0
 44 45  1  0
 46 47  1  0
 46 44  1  0
 48 46  2  0
 49 48  1  0
 50 41  2  0
 50 48  1  0
 51 50  1  0
 52 61  1  0
 53 55  1  0
 53 52  2  0
 54 53  1  0
 55 57  2  0
 56 55  1  0
 57 58  1  0
 57 59  1  0
 59 60  1  0
 61 62  1  0
 61 59  2  0
 63 70  1  0
 63 64  1  0
 63 32  1  0
 64 65  1  0
 64 66  2  0
 66 67  1  0
 68 69  1  0
 68 66  1  0
 70 68  2  0
 71  7  1  0
 71 80  1  0
 72 71  2  0
 73 72  1  0
 74 72  1  0
 74 76  2  0
 75 74  1  0
 76 78  1  0
 77 76  1  0
 78 80  2  0
 78 79  1  0
 80 81  1  0
 82  7  1  0
 83 82  1  0
 83 84  1  0
 85 83  2  0
 86 85  1  0
 87 89  2  0
 87 85  1  0
 88 87  1  0
 89 91  1  0
 90 89  1  0
 91 92  1  0
 91 82  2  0
 94 70  1  0
M  END
>  <Energy>  (4) 
-3967.4600130000003

$$$$
